   ---   19   cards of disk file read into card cache cells  1   onward.
Alternative Transients Program (ATP),  F77 GNU Linux or DOS.  All rights reserved by Can/Am user group of Portland, Oregon, USA.
 Date (dd-mth-yy) and time of day (hh.mm.ss) = 11-Nov-18  11.00.00    Name of disk plot file, if any, is
Consult the 860-page ATP Rule Book of the Can/Am EMTP User Group in Portland,  Oregon, USA.  Source code date is
Total size of LABCOM tables = 414354785 INTEGER words.  31 VARDIM  List Sizes follow:  6002  10K  192K  900  420K  1200  15K
 99999K  2250  3800  720  2K 72800  510  800K  800  90  254  800K  100K 99999  15K  192K  120  45K  260K  600  210K  1100  19 99999
--------------------------------------------------+--------------------------------------------------------------------------------
Descriptive interpretation of input data cards.   |  Input data card images are shown below, all 80 columns, character by character
                                                  0         1         2         3         4         5         6         7         8
                                                  012345678901234567890123456789012345678901234567890123456789012345678901234567890
--------------------------------------------------+--------------------------------------------------------------------------------
Comment card.   KOMPAR > 0.                       |C data:JMTest.dat
Marker card preceding new EMTP data case.         |BEGIN NEW DATA CASE
Jose Marti`s line fitter.   PDT0 = 0.00000000E+00 |JMARTI SETUP
Erase all of  0   cards in the punch buffer.      |$ERASE
Pairs of A6 terminal node names for each phase.   |BRANCH  IN_001OUT001IN_002OUT002IN_003OUT003
Compute overhead line constants.  Limit = 106     |LINE CONSTANTS
Request for metric (not English) units.           |METRIC
Line conductor card.  3.160E-01  2.150E-01     4  |  10.316    .215 4           1.724     0.0      8.      8.
Line conductor card.  3.160E-01  2.150E-01     4  |  20.316    .215 4           1.724     1.5      8.      8.
Line conductor card.  3.160E-01  2.150E-01     4  |  30.316    .215 4           1.724     2.3      8.      8.
Blank card terminates  3  line-conductor cards.   |BLANK CARD ENDING CONDUCTOR CARDS
Frequency card.  1.000E+02  1.000E+02  1.000E+00  |    100.      100.                                1.                 1-9

Line conductor table after sorting and initial processing.
 Table   Phase   Skin effect    Resistance   Reactance data specification     Diameter   Horizontal   Avg height   A10 name of
   Row  Number        R-type    R (Ohm/km)   X-type      X(Ohm/km) or GMR     (  cm  )     X (mtrs)     Y (mtrs)   conductor
     1       1        .31600        .21500        4               .000000      1.72400        0.000        8.000
     2       2        .31600        .21500        4               .000000      1.72400        1.500        8.000
     3       3        .31600        .21500        4               .000000      1.72400        2.300        8.000

Matrices are for earth resistivity = 1.00000000E+02  Ohm-meters  and frequency 1.00000000E+02  Hz.   Correction factor =
1.00000000E-06

Modal parameters at frequency  FREQ = 1.00000000E+02 Hz

Eigenvector matrix  [Ti]  for current transformation:  I-phase = [Ti]*I-mode.   First the real part, row by row:
  6.35714315085865E-01 -7.98629466382974E-01 -1.66565381983456E-01
  5.14342449722468E-01  2.56187097155173E-01  7.75364013428028E-01
  5.73949811641553E-01  5.44303621433974E-01 -6.08839851474583E-01

Finally,  the imaginary part,  row by row:
  0.00000000000000E+00  5.27261680791238E-03 -1.69655163894717E-03
  4.08400540986171E-02 -7.56751747559676E-03 -1.87324269568946E-02
  1.52596758238417E-02 -1.44099466053004E-02  5.18395165250251E-03

Frequency card.  1.000E+02  5.000E+01  1.000E+00  |    100.       50.                                1.                 1-9

Matrices are for earth resistivity = 1.00000000E+02  Ohm-meters  and frequency 5.00000000E+01  Hz.   Correction factor =
1.00000000E-06
Frequency card.  1.000E+02  5.000E+01  1.000E+00  |    100.       50.                                1.         2 10    1-9
Blank card terminating frequency cards.           |BLANK CARD ENDING FREQUENCY CARDS
Blank card ending  "LINE CONSTANTS"  cases.       |BLANK CARD ENDING LINE CONSTANT
Request for default fitting (= 3 blank cards)     |DEFAULT

=====   =====   Begin  Zc  fitting for mode  IMODE = 1    =====    =====
The number of poles  NPOLES = 32   in this loop exceeds the specified limit  NORMAX = 30

   @@@@@  @@@@@   Begin  A1  fitting for mode  IMODE = 1    @@@@@  @@@@@

=====   =====   Begin  Zc  fitting for mode  IMODE = 2    =====    =====
The number of poles  NPOLES = 32   in this loop exceeds the specified limit  NORMAX = 30

   @@@@@  @@@@@   Begin  A1  fitting for mode  IMODE = 2    @@@@@  @@@@@

=====   =====   Begin  Zc  fitting for mode  IMODE = 3    =====    =====
The number of poles  NPOLES = 36   in this loop exceeds the specified limit  NORMAX = 30

   @@@@@  @@@@@   Begin  A1  fitting for mode  IMODE = 3    @@@@@  @@@@@

Request for flushing of punch buffer.             |$PUNCH

A listing of 80-column card images now being flushed from punch buffer follows.
===============================================================================
1234567890123456789012345678901234567890123456789012345678901234567890123456789
===============================================================================
C  <++++++>  Cards punched by support routine on  11-Nov-18  11.00.00  <++++++>
C     ***** UNTRANSPOSED JMARTI line segment ******
C JMARTI SETUP
C $ERASE
C BRANCH  IN_001OUT001IN_002OUT002IN_003OUT003
C LINE CONSTANTS
C METRIC
C   10.316    .215 4           1.724     0.0      8.      8.
C   20.316    .215 4           1.724     1.5      8.      8.
C   30.316    .215 4           1.724     2.3      8.      8.
C BLANK CARD ENDING CONDUCTOR CARDS
C     100.      100.                                1.                 1-9
C     100.       50.                                1.                 1-9
C     100.       50.                                1.         2 10    1-9
C BLANK CARD ENDING FREQUENCY CARDS
C BLANK CARD ENDING LINE CONSTANT
C DEFAULT
-1IN_001OUT001                2.  0.00              -2 3
       8       8.9373178378675402000E+02
   7.53029314129201070E+03   2.32340688538286300E+04   2.47548176721692290E+04
   2.83336985534182930E+04   1.76599345555393430E+05   1.73384177567142700E+05
   2.10228327078390260E+05   1.63359079201025250E+05
   9.11696879228929670E+02   8.78258712713659180E+02   8.00600277158756510E+02
   1.50079188230650450E+03   7.58003528532942980E+03   1.04032888820141160E+04
   9.36759439007968830E+03   1.18003896252151550E+04
       1      -6.3751588680012743000E-09
   2.44473290249496900E+05
   2.44515171343194060E+05
-2IN_002OUT002                2.  0.00              -2 3
       6       3.4428318234246660000E+02
   6.32328883673221390E+03   7.26495334277476190E+03  -1.54771349448888670E+03
   1.42473347110353440E+03   2.03138818025121670E+03   3.85657391793096610E+04
   5.07954178796696280E+02   4.83739647179135200E+02   5.14276415955446850E+02
   8.90923775528431630E+02   1.21350388594808260E+03   2.18088606793709370E+04
       1       6.9936136484661561000E-08
   3.02449103411138000E+05
   3.02539257691733890E+05
-3IN_003OUT003                2.  0.00              -2 3
       7       2.7101978002605262000E+02
   5.80273168503599080E+04  -4.37424168623684530E+04   8.08955946320384780E+02
   7.68346380950176240E+02   2.08639570076729710E+03   1.58056927570965000E+04
   2.17001181709745000E+04
   5.06052051307085830E+02   5.10506229225955050E+02   5.21763730675274590E+02
   8.78994884708130370E+02   2.12341735712244870E+03   1.54743473770222590E+04
   2.17939172290495010E+04
       1       1.6083031433295091000E-07
   3.10686351028907170E+05
   3.10801501339399080E+05
  0.63571432 -0.79862947 -0.16656538
  0.00000000  0.00527262 -0.00169655
  0.51434245  0.25618710  0.77536401
  0.04084005 -0.00756752 -0.01873243
  0.57394981  0.54430362 -0.60883985
  0.01525968 -0.01440995  0.00518395
=========<  End of LUNIT7 punched cards as flushed by  $PUNCH  request  >=======

Blank card ending  "JMARTI SETUP"  data.          |BLANK CARD ENDING JMARTI SETUP

Total case timing (CP, I/O, tot), sec:      0.000     0.000     0.000

