   ---   33   cards of disk file read into card cache cells  1   onward.
Alternative Transients Program (ATP),  GNU Linux or DOS.  All rights reserved by Can/Am user group of Portland, Oregon, USA.
 Date (dd-mth-yy) and time of day (hh.mm.ss) = 14-Nov-21  22:25:13   Name of disk plot file is  pipet.pl4
Consult the 860-page ATP Rule Book of the Can/Am EMTP User Group in Portland,  Oregon, USA.  Source code date is 18 November 2012.
Total size of LABCOM tables = 460023529 INTEGER words.  31 VARDIM  List Sizes follow:  65002  150K  200K  2K  5000K  6K  60K
  500K  10K  16K  3K  12K  300K  2K  400K  3200  360  1016 59999K  400K  12K  60K  2000K  1K  120K  2000K  80K39999K  1200  39  800
--------------------------------------------------+--------------------------------------------------------------------------------
Descriptive interpretation of input data cards.   |  Input data card images are shown below, all 80 columns, character by character
                                                  0         1         2         3         4         5         6         7         8
                                                  012345678901234567890123456789012345678901234567890123456789012345678901234567890
--------------------------------------------------+--------------------------------------------------------------------------------
Comment card.   NUMDCD = 1.                       |C data:PIPET.DAT
Marker card preceding new EMTP data case.         |BEGIN NEW DATA CASE
Jose Marti`s line fitter.   PDT0 = 0.00000000E+00 |JMARTI SETUP
Erase all of  0   cards in the punch buffer.      |$ERASE
Pairs of A6 terminal node names for each phase.   |BRANCH  IN___AOUT__AIN___BOUT__BIN___COUT__CIN___DOUT__DIN___EOUT__EIN___FOUT__F
Akihiro Ametani`s old code.  Limits =  173  346   |CABLE CONSTANTS
Prof. Akihiro Ametani`s 1994 code.   Order = 248  |CABLE PARAMETERS
Misc.   2   1   6   0   1   1   0   0   0   0   0 |    2    1    6         1    1              0    0    0
Cable conductor numbers.  1 1 1 1 1 1             |    1    1    1    1    1    1
Radii.    .00   .01   .01                         |   0.00463   0.01257   0.01257
Physical constants for conductors & insulators.   | 7.1221E-8        1.        1.        1.
Radii.    .00   .01   .01                         |   0.00463   0.01257   0.01257
Physical constants for conductors & insulators.   | 7.1221E-8        1.        1.        1.
Radii.    .00   .01   .01                         |   0.00463   0.01257   0.01257
Physical constants for conductors & insulators.   | 7.1221E-8        1.        1.        1.
Radii.    .12   .13   .23                         |    0.1245     0.127     0.227
Physical constants for conductors & insulators.   |   2.84E-7      250.        1.        3.
Radii.    .00   .00   .00                         |       0.0  0.004765  0.004765
Physical constants for conductors & insulators.   |2.46925E-7        1.        1.        1.
Radii.    .00   .00   .00                         |       0.0  0.004765  0.004765
Physical constants for conductors & insulators.   |2.46925E-7        1.        1.        1.
(Y,X)  1.350E+01 -6.600E+00  1.350E+01  0.000E+00 |      13.5      -6.6      13.5       0.0      13.5       6.6        1.       10.
(Y,X)  1.760E+01 -4.650E+00  1.760E+01  4.650E+00 |      17.6     -4.65      17.6      4.65
Frequency card 1.000E+03 1.000E+06  0  1 1.00E+03 |           1.E3           1.E6              1.E3
         6 -phase SC cable with 6  conductors.  0  grounded.  Total # of conductors = 6
           Overhead cable
           Cable constants
           Phase 1  Boundary radii ;
            1  4.63000E-03  2  1.25700E-02  3  1.26700E-02
                   Resistivity(Ohm-m): Core 7.12210000E-08, Sheath 1.00000000E-08, Armor 1.00000000E-08
                   Relative permeability;  1.00000000E+00, 1.00000000E+00, 1.00000000E+00
                   Insulator:  1; (Relative) Permeability  1.0   Permittivity  1.00   Velocity(m/s) 2.99793E+08
                   DC resistance(Ohm/m),      1.66000E-04
           Phase 2  Boundary radii ;
            1  4.63000E-03  2  1.25700E-02  3  1.26700E-02
                   Resistivity(Ohm-m): Core 7.12210000E-08, Sheath 1.00000000E-08, Armor 1.00000000E-08
                   Relative permeability;  1.00000000E+00, 1.00000000E+00, 1.00000000E+00
                   Insulator:  1; (Relative) Permeability  1.0   Permittivity  1.00   Velocity(m/s) 2.99793E+08
                   DC resistance(Ohm/m),      1.66000E-04
           Phase 3  Boundary radii ;
            1  4.63000E-03  2  1.25700E-02  3  1.26700E-02
                   Resistivity(Ohm-m): Core 7.12210000E-08, Sheath 1.00000000E-08, Armor 1.00000000E-08
                   Relative permeability;  1.00000000E+00, 1.00000000E+00, 1.00000000E+00
                   Insulator:  1; (Relative) Permeability  1.0   Permittivity  1.00   Velocity(m/s) 2.99793E+08
                   DC resistance(Ohm/m),      1.66000E-04
           Phase 4  Boundary radii ;
            1  1.24500E-01  2  1.27000E-01  3  2.27000E-01
                   Resistivity(Ohm-m): Core 2.84000000E-07, Sheath 1.00000000E-08, Armor 1.00000000E-08
                   Relative permeability;  2.50000000E+02, 1.00000000E+00, 1.00000000E+00
                   Insulator:  1; (Relative) Permeability  1.0   Permittivity  3.00   Velocity(m/s) 1.73085E+08
                   DC resistance(Ohm/m),      1.43777E-04
           Phase 5  Boundary radii ;
            1  0.00000E+00  2  4.76500E-03  3  4.86500E-03
                   Resistivity(Ohm-m): Core 2.46925000E-07, Sheath 1.00000000E-08, Armor 1.00000000E-08
                   Relative permeability;  1.00000000E+00, 1.00000000E+00, 1.00000000E+00
                   Insulator:  1; (Relative) Permeability  1.0   Permittivity  1.00   Velocity(m/s) 2.99793E+08
                   DC resistance(Ohm/m),      3.46170E-03
           Phase 6  Boundary radii ;
            1  0.00000E+00  2  4.76500E-03  3  4.86500E-03
                   Resistivity(Ohm-m): Core 2.46925000E-07, Sheath 1.00000000E-08, Armor 1.00000000E-08
                   Relative permeability;  1.00000000E+00, 1.00000000E+00, 1.00000000E+00
                   Insulator:  1; (Relative) Permeability  1.0   Permittivity  1.00   Velocity(m/s) 2.99793E+08
                   DC resistance(Ohm/m),      3.46170E-03
           Distance from Earth surface ;      1  13.5000    2  13.5000    3  13.5000    4   1.0000    5  17.6000    6  17.6000
           Distance between phases     :        -6.6000         .0000        6.6000       10.0000       -4.6500        4.6500
           Earth ; resistivity 1.00000000E+03


             Earth impedance [Ze] in Ohm/m
  4.36030E-01  4.28251E-01  4.06435E-01  4.87981E-01  4.01263E-01  3.84385E-01
  6.59618E-01  6.34020E-01  5.67550E-01  6.48746E-01  5.83620E-01  5.35039E-01  Core 1
 
  4.28251E-01  4.36030E-01  4.28251E-01  5.46507E-01  3.98727E-01  3.98727E-01
  6.34020E-01  6.59618E-01  6.34020E-01  8.63588E-01  5.76055E-01  5.76055E-01  Core 2
 
  4.06435E-01  4.28251E-01  4.36030E-01  5.81886E-01  3.84385E-01  4.01263E-01
  5.67550E-01  6.34020E-01  6.59618E-01  1.03847E+00  5.35039E-01  5.83620E-01  Core 3
 
  4.87981E-01  5.46507E-01  5.81886E-01  8.97248E-01  4.67246E-01  5.18439E-01
  6.48746E-01  8.63588E-01  1.03847E+00  3.04651E+00  6.56654E-01  8.48295E-01  Core 4
 
  4.01263E-01  3.98727E-01  3.84385E-01  4.67246E-01  3.72441E-01  3.62702E-01
  5.83620E-01  5.76055E-01  5.35039E-01  6.56654E-01  5.25603E-01  4.99462E-01  Core 5
 
  3.84385E-01  3.98727E-01  4.01263E-01  5.18439E-01  3.62702E-01  3.72441E-01
  5.35039E-01  5.76055E-01  5.83620E-01  8.48295E-01  4.99462E-01  5.25603E-01  Core 6


             Conductor internal impedance [Zi] in Ohm/m
  6.74981E-03  0.00000E+00  0.00000E+00  0.00000E+00  0.00000E+00  0.00000E+00
  1.66712E-02  0.00000E+00  0.00000E+00  0.00000E+00  0.00000E+00  0.00000E+00  Core 1
 
  0.00000E+00  6.74981E-03  0.00000E+00  0.00000E+00  0.00000E+00  0.00000E+00
  0.00000E+00  1.66712E-02  0.00000E+00  0.00000E+00  0.00000E+00  0.00000E+00  Core 2
 
  0.00000E+00  0.00000E+00  6.74981E-03  0.00000E+00  0.00000E+00  0.00000E+00
  0.00000E+00  0.00000E+00  1.66712E-02  0.00000E+00  0.00000E+00  0.00000E+00  Core 3
 
  0.00000E+00  0.00000E+00  0.00000E+00  2.09824E-02  0.00000E+00  0.00000E+00
  0.00000E+00  0.00000E+00  0.00000E+00  7.50789E-01  0.00000E+00  0.00000E+00  Core 4
 
  0.00000E+00  0.00000E+00  0.00000E+00  0.00000E+00  3.38602E-02  0.00000E+00
  0.00000E+00  0.00000E+00  0.00000E+00  0.00000E+00  5.90590E-02  0.00000E+00  Core 5
 
  0.00000E+00  0.00000E+00  0.00000E+00  0.00000E+00  0.00000E+00  3.38602E-02
  0.00000E+00  0.00000E+00  0.00000E+00  0.00000E+00  0.00000E+00  5.90590E-02  Core 6
Frequency card 1.000E+03 5.000E+01  0  1 1.00E+03 |           1.E3            50.              1.E3
Frequency card 1.000E+03 5.000E+01  6 10 1.00E+03 |           1.E3            50.    6   10    1.E3
Blank card terminating frequency cards.           |BLANK CARD ENDING FREQUENCY CARDS
Blank card ends stacked subcases of cable data.   |BLANK CARD ENDING CABLE CONSTANTS
Parameters.  3.0000E-08      1      4      1      |               4       1       1   3.E-8
Zc fitting.  -1 0.3E+00 30  0  1  0  1  0         |             0.3      30       0       1       0       1       0

=====   =====   Begin  Zc  fitting for mode  IMODE = 1    =====    =====

Units :  Freq in Hz;  R, L, G, and C per kilometer;  R in Ohms,  L in Millihenries,  G in mhos,  and  C in microfarads;
Zc  in Ohms  and  PHZC  in degrees.
     Freq        R          L         G          C          Zc        PHZC       Freq
  5.0000E+01 1.7316E+00 7.6901E-01 3.0000E-08 1.4999E-02 6.0914E+02-4.0846E+01 5.0000E+01
  6.2946E+01 1.7326E+00 7.6941E-01 3.0000E-08 1.4991E-02 5.4469E+02-3.9874E+01 6.2946E+01
  7.9245E+01 2.3914E-01 2.1689E+00 3.0000E-08 2.9010E-02 2.7673E+02-6.1835E+00 7.9245E+01
  9.9763E+01 2.7699E-01 2.1223E+00 3.0000E-08 2.9240E-02 2.7229E+02-5.8339E+00 9.9763E+01
  1.2559E+02 3.2467E-01 2.0732E+00 3.0000E-08 2.9456E-02 2.6787E+02-5.5754E+00 1.2559E+02
  1.5811E+02 3.8446E-01 2.0225E+00 3.0000E-08 2.9644E-02 2.6356E+02-5.3870E+00 1.5811E+02
  1.9905E+02 4.5840E-01 1.9710E+00 3.0000E-08 2.9803E-02 2.5936E+02-5.2440E+00 1.9905E+02
  2.5059E+02 5.4850E-01 1.9199E+00 3.0000E-08 2.9934E-02 2.5531E+02-5.1239E+00 2.5059E+02
  3.1548E+02 6.5739E-01 1.8706E+00 3.0000E-08 3.0033E-02 2.5151E+02-5.0124E+00 3.1548E+02
  3.9716E+02 7.8926E-01 1.8245E+00 3.0000E-08 3.0096E-02 2.4804E+02-4.9058E+00 3.9716E+02
  5.0000E+02 9.5039E-01 1.7821E+00 3.0000E-08 3.0124E-02 2.4496E+02-4.8082E+00 5.0000E+02
  6.2946E+02 1.1491E+00 1.7429E+00 3.0000E-08 3.0118E-02 2.4221E+02-4.7247E+00 6.2946E+02
  7.9245E+02 1.3954E+00 1.7065E+00 3.0000E-08 3.0085E-02 2.3975E+02-4.6574E+00 7.9245E+02
  9.9763E+02 1.7013E+00 1.6721E+00 3.0000E-08 3.0030E-02 2.3751E+02-4.6055E+00 9.9763E+02
  1.2559E+03 2.0813E+00 1.6394E+00 3.0000E-08 2.9955E-02 2.3544E+02-4.5661E+00 1.2559E+03
  1.5811E+03 2.5535E+00 1.6082E+00 3.0000E-08 2.9863E-02 2.3353E+02-4.5373E+00 1.5811E+03
  1.9905E+03 3.1407E+00 1.5784E+00 3.0000E-08 2.9755E-02 2.3176E+02-4.5176E+00 1.9905E+03
  2.5059E+03 3.8716E+00 1.5498E+00 3.0000E-08 2.9633E-02 2.3012E+02-4.5057E+00 2.5059E+03
  3.1548E+03 4.7819E+00 1.5224E+00 3.0000E-08 2.9497E-02 2.2859E+02-4.5007E+00 3.1548E+03
  3.9716E+03 5.9161E+00 1.4959E+00 3.0000E-08 2.9349E-02 2.2717E+02-4.5016E+00 3.9716E+03
  5.0000E+03 7.3300E+00 1.4703E+00 3.0000E-08 2.9189E-02 2.2584E+02-4.5075E+00 5.0000E+03
  6.2946E+03 9.0930E+00 1.4456E+00 3.0000E-08 2.9018E-02 2.2460E+02-4.5175E+00 6.2946E+03
  7.9245E+03 1.1291E+01 1.4217E+00 3.0000E-08 2.8837E-02 2.2343E+02-4.5309E+00 7.9245E+03
  9.9763E+03 1.4032E+01 1.3984E+00 3.0000E-08 2.8646E-02 2.2235E+02-4.5470E+00 9.9763E+03
  1.2559E+04 1.7450E+01 1.3758E+00 3.0000E-08 2.8447E-02 2.2133E+02-4.5649E+00 1.2559E+04
  1.5811E+04 2.1708E+01 1.3538E+00 3.0000E-08 2.8239E-02 2.2037E+02-4.5839E+00 1.5811E+04
  1.9905E+04 2.7013E+01 1.3324E+00 3.0000E-08 2.8024E-02 2.1947E+02-4.6035E+00 1.9905E+04
  2.5059E+04 3.3616E+01 1.3115E+00 3.0000E-08 2.7803E-02 2.1861E+02-4.6228E+00 2.5059E+04
  3.1548E+04 4.1830E+01 1.2911E+00 3.0000E-08 2.7577E-02 2.1780E+02-4.6414E+00 3.1548E+04
  3.9716E+04 5.2041E+01 1.2710E+00 3.0000E-08 2.7347E-02 2.1702E+02-4.6588E+00 3.9716E+04
  5.0000E+04 6.4723E+01 1.2514E+00 3.0000E-08 2.7114E-02 2.1627E+02-4.6743E+00 5.0000E+04
  6.2946E+04 8.0459E+01 1.2321E+00 3.0000E-08 2.6880E-02 2.1554E+02-4.6877E+00 6.2946E+04
  7.9245E+04 9.9963E+01 1.2131E+00 3.0000E-08 2.6645E-02 2.1482E+02-4.6984E+00 7.9245E+04
  9.9763E+04 1.2411E+02 1.1944E+00 3.0000E-08 2.6412E-02 2.1410E+02-4.7060E+00 9.9763E+04
  1.2559E+05 1.5398E+02 1.1760E+00 3.0000E-08 2.6181E-02 2.1338E+02-4.7104E+00 1.2559E+05
  1.5811E+05 1.9087E+02 1.1577E+00 3.0000E-08 2.5953E-02 2.1264E+02-4.7113E+00 1.5811E+05
  1.9905E+05 2.3639E+02 1.1396E+00 3.0000E-08 2.5732E-02 2.1188E+02-4.7085E+00 1.9905E+05
  2.5059E+05 2.9250E+02 1.1216E+00 3.0000E-08 2.5517E-02 2.1108E+02-4.7023E+00 2.5059E+05
  3.1548E+05 3.6158E+02 1.1037E+00 3.0000E-08 2.5311E-02 2.1023E+02-4.6925E+00 3.1548E+05
  3.9716E+05 4.4656E+02 1.0858E+00 3.0000E-08 2.5115E-02 2.0932E+02-4.6796E+00 3.9716E+05
  5.0000E+05 5.5100E+02 1.0678E+00 3.0000E-08 2.4930E-02 2.0835E+02-4.6637E+00 5.0000E+05
  6.2946E+05 6.7927E+02 1.0499E+00 3.0000E-08 2.4757E-02 2.0730E+02-4.6452E+00 6.2946E+05
  7.9245E+05 8.3669E+02 1.0319E+00 3.0000E-08 2.4597E-02 2.0617E+02-4.6245E+00 7.9245E+05
  9.9763E+05 1.0298E+03 1.0139E+00 3.0000E-08 2.4451E-02 2.0495E+02-4.6021E+00 9.9763E+05
  1.2559E+06 1.2665E+03 9.9572E-01 3.0000E-08 2.4318E-02 2.0365E+02-4.5782E+00 1.2559E+06
  1.5811E+06 1.5566E+03 9.7752E-01 3.0000E-08 2.4200E-02 2.0226E+02-4.5531E+00 1.5811E+06
  1.9905E+06 1.9118E+03 9.5928E-01 3.0000E-08 2.4094E-02 2.0079E+02-4.5270E+00 1.9905E+06
  2.5059E+06 2.3466E+03 9.4102E-01 3.0000E-08 2.4002E-02 1.9924E+02-4.4998E+00 2.5059E+06
  3.1548E+06 2.8782E+03 9.2278E-01 3.0000E-08 2.3921E-02 1.9761E+02-4.4712E+00 3.1548E+06
  3.9716E+06 3.5277E+03 9.0460E-01 3.0000E-08 2.3851E-02 1.9593E+02-4.4410E+00 3.9716E+06
  5.0000E+06 4.3201E+03 8.8654E-01 3.0000E-08 2.3791E-02 1.9419E+02-4.4085E+00 5.0000E+06
  6.2946E+06 5.2852E+03 8.6863E-01 3.0000E-08 2.3739E-02 1.9241E+02-4.3730E+00 6.2946E+06
  7.9245E+06 6.4589E+03 8.5095E-01 3.0000E-08 2.3695E-02 1.9060E+02-4.3338E+00 7.9245E+06
  9.9763E+06 7.8826E+03 8.3354E-01 3.0000E-08 2.3658E-02 1.8876E+02-4.2897E+00 9.9763E+06
  1.2559E+07 9.6056E+03 8.1646E-01 3.0000E-08 2.3627E-02 1.8692E+02-4.2398E+00 1.2559E+07
  1.5811E+07 1.1686E+04 7.9975E-01 3.0000E-08 2.3600E-02 1.8507E+02-4.1835E+00 1.5811E+07
  1.9905E+07 1.4189E+04 7.8347E-01 3.0000E-08 2.3577E-02 1.8324E+02-4.1196E+00 1.9905E+07
  2.5059E+07 1.7191E+04 7.6767E-01 3.0000E-08 2.3558E-02 1.8142E+02-4.0474E+00 2.5059E+07
  3.1548E+07 2.0780E+04 7.5238E-01 3.0000E-08 2.3542E-02 1.7963E+02-3.9661E+00 3.1548E+07
  3.9716E+07 2.5055E+04 7.3766E-01 3.0000E-08 2.3528E-02 1.7788E+02-3.8754E+00 3.9716E+07
  5.0000E+07 3.0127E+04 7.2353E-01 3.0000E-08 2.3516E-02 1.7617E+02-3.7750E+00 5.0000E+07
   IKNEE = 2   curve zones  XKNEE :      1.699     7.699
   ###  Begin allocation loop number  1
  ---  Least square average error  D1 = 1.90432817E+01 ;   check error  D2 =  1.65567513E+01
       Number of poles  NPOLE = 7     Number of zeros  NZERO = 7
       Error criterion used: least-square check error less than   0.300   percent.
   ###  Begin allocation loop number  2
  ---  Least square average error  D1 = 1.90265458E+01 ;   check error  D2 =  1.65378312E+01
       Number of poles  NPOLE = 9     Number of zeros  NZERO = 9
       Error criterion used: least-square check error less than   0.300   percent.
   ###  Begin allocation loop number  3
  ---  Least square average error  D1 = 1.88669425E+01 ;   check error  D2 =  1.65026180E+01
       Number of poles  NPOLE = 13     Number of zeros  NZERO = 13
       Error criterion used: least-square check error less than   0.300   percent.
   ###  Begin allocation loop number  4
  ---  Least square average error  D1 = 1.88665249E+01 ;   check error  D2 =  1.65022020E+01
       Number of poles  NPOLE = 15     Number of zeros  NZERO = 15
       Error criterion used: least-square check error less than   0.300   percent.
   ###  Begin allocation loop number  5
  ---  Least square average error  D1 = 1.88667931E+01 ;   check error  D2 =  1.65025073E+01
       Number of poles  NPOLE = 18     Number of zeros  NZERO = 18
       Error criterion used: least-square check error less than   0.300   percent.
   ###  Begin allocation loop number  6
  ---  Least square average error  D1 = 1.91714182E+01 ;   check error  D2 =  1.66939861E+01
       Number of poles  NPOLE = 22     Number of zeros  NZERO = 22
       Error criterion used: least-square check error less than   0.300   percent.
   ###  Begin allocation loop number  7
  ---  Least square average error  D1 = 2.66563092E+01 ;   check error  D2 =  2.47205562E+01
       Number of poles  NPOLE = 27     Number of zeros  NZERO = 27
       Error criterion used: least-square check error less than   0.300   percent.
   ###  Begin allocation loop number  8
The number of poles  NPOLES = 36   in this loop exceeds the specified limit  NORMAX = 30
 --- The maximum tolerance criterion  EPSTOL = 1.69242672E-06   could not be met.
Curve type  IFTYPE = 1     Reference level  D1 = 1.76170622E+02     Number poles = 15     Number zeros = 15
Table of  Zc  vs.  ZCEQ  for mode  1   follows:
       Frequency             ZCMAG            ZCEQMAG           DELMAG             ZCPH            ZCEQPH            DELPH
       in Hertz             in Ohms           in Ohms         in percent         degrees          degrees           degrees
    5.000000000E+01   6.091420934E+02   4.522777809E+02  -2.575167834E+01  -4.084643160E+01  -2.515511301E+01   1.569131859E+01
    6.294627059E+01   5.446941539E+02   4.095061807E+02  -2.481906078E+01  -3.987419571E+01  -2.676452947E+01   1.310966624E+01
    7.924465962E+01   2.767254792E+02   3.681047884E+02   3.302164640E+01  -6.183530480E+00  -2.711733059E+01   2.093380011E+01
    9.976311575E+01   2.722865060E+02   3.318482052E+02   2.187464232E+01  -5.833850204E+00  -2.615575814E+01   2.032190794E+01
    1.255943216E+02   2.678703832E+02   3.027043118E+02   1.300402388E+01  -5.575449427E+00  -2.412382243E+01   1.854837300E+01
    1.581138830E+02   2.635572085E+02   2.807580621E+02   6.526421239E+00  -5.386968966E+00  -2.143890227E+01   1.605193330E+01
    1.990535853E+02   2.593593416E+02   2.649465985E+02   2.154253189E+00  -5.244014305E+00  -1.851653309E+01   1.327251878E+01
    2.505936168E+02   2.553133825E+02   2.538594966E+02  -5.694514960E-01  -5.123933087E+00  -1.566186574E+01   1.053793266E+01
    3.154786722E+02   2.515098674E+02   2.462136184E+02  -2.105781781E+00  -5.012355393E+00  -1.305207891E+01   8.039723520E+00
    3.971641174E+02   2.480443988E+02   2.410067058E+02  -2.837271506E+00  -4.905806339E+00  -1.076811465E+01   5.862308308E+00
    5.000000000E+02   2.449561803E+02   2.375005524E+02  -3.043657818E+00  -4.808205179E+00  -8.832037533E+00   4.023832354E+00
    6.294627059E+02   2.422142903E+02   2.351591571E+02  -2.912765061E+00  -4.724679061E+00  -7.232926279E+00   2.508247218E+00
    7.924465962E+02   2.397514098E+02   2.335948613E+02  -2.567888341E+00  -4.657435114E+00  -5.942554230E+00   1.285119116E+00
    9.976311575E+02   2.375056909E+02   2.325287063E+02  -2.095522254E+00  -4.605452629E+00  -4.925315729E+00   3.198631008E-01
    1.255943216E+03   2.354393256E+02   2.317593634E+02  -1.563019379E+00  -4.566105589E+00  -4.144501541E+00   4.216040476E-01
    1.581138830E+03   2.335298855E+02   2.311375364E+02  -1.024429545E+00  -4.537326930E+00  -3.565566329E+00   9.717606001E-01
    1.990535853E+03   2.317619316E+02   2.305457724E+02  -5.247450304E-01  -4.517599795E+00  -3.156818837E+00   1.360780958E+00
    2.505936168E+03   2.301205635E+02   2.298850787E+02  -1.023310966E-01  -4.505746079E+00  -2.888030393E+00   1.617715686E+00
    3.154786722E+03   2.285927733E+02   2.290709398E+02   2.091783304E-01  -4.500726609E+00  -2.727650215E+00   1.773076394E+00
    3.971641174E+03   2.271681888E+02   2.280417907E+02   3.845617287E-01  -4.501596956E+00  -2.640003318E+00   1.861593638E+00
    5.000000000E+03   2.258383615E+02   2.267793835E+02   4.166794354E-01  -4.507476673E+00  -2.585039718E+00   1.922436956E+00
    6.294627059E+03   2.245959286E+02   2.253297716E+02   3.267392306E-01  -4.517527021E+00  -2.523496114E+00   1.994030907E+00
    7.924465962E+03   2.234341367E+02   2.238027637E+02   1.649823744E-01  -4.530947217E+00  -2.427204254E+00   2.103742963E+00
    9.976311575E+03   2.223466256E+02   2.223358833E+02  -4.831320831E-03  -4.546971388E+00  -2.288374997E+00   2.258596391E+00
    1.255943216E+04   2.213272322E+02   2.210397872E+02  -1.298733453E-01  -4.564861628E+00  -2.120002747E+00   2.444858882E+00
    1.581138830E+04   2.203697053E+02   2.199615778E+02  -1.852012773E-01  -4.583905867E+00  -1.946548251E+00   2.637357616E+00
    1.990535853E+04   2.194670633E+02   2.190842811E+02  -1.744144302E-01  -4.603458230E+00  -1.791977428E+00   2.811480802E+00
    2.505936168E+04   2.186137830E+02   2.183506332E+02  -1.203720294E-01  -4.622804758E+00  -1.672001246E+00   2.950803513E+00
    3.154786722E+04   2.178012890E+02   2.176909565E+02  -5.065739987E-02  -4.641419491E+00  -1.591905245E+00   3.049514245E+00
    3.971641174E+04   2.170229713E+02   2.170448048E+02   1.006047694E-02  -4.658770558E+00  -1.548062648E+00   3.110707910E+00
    5.000000000E+04   2.162718896E+02   2.163744838E+02   4.743761590E-02  -4.674349388E+00  -1.531471509E+00   3.142877880E+00
    6.294627059E+04   2.155406084E+02   2.156688149E+02   5.948133402E-02  -4.687685560E+00  -1.532405153E+00   3.155280407E+00
    7.924465962E+04   2.148211080E+02   2.149350224E+02   5.302759458E-02  -4.698359816E+00  -1.544547837E+00   3.153811979E+00
    9.976311575E+04   2.141047372E+02   2.141829761E+02   3.654235458E-02  -4.706016722E+00  -1.566239096E+00   3.139777626E+00
    1.255943216E+05   2.133822126E+02   2.134138046E+02   1.480533486E-02  -4.710377176E+00  -1.598206271E+00   3.112170905E+00
    1.581138830E+05   2.126436729E+02   2.126215584E+02  -1.039976953E-02  -4.711250127E+00  -1.640429308E+00   3.070820819E+00
    1.990535853E+05   2.118788016E+02   2.118028794E+02  -3.583286995E-02  -4.708542341E+00  -1.691535447E+00   3.017006894E+00
    2.505936168E+05   2.110770299E+02   2.109611612E+02  -5.489400228E-02  -4.702264691E+00  -1.751012280E+00   2.951252410E+00
    3.154786722E+05   2.102278211E+02   2.100992784E+02  -6.114448323E-02  -4.692533265E+00  -1.821029405E+00   2.871503860E+00
    3.971641174E+05   2.093210348E+02   2.092100619E+02  -5.301562485E-02  -4.679563670E+00  -1.905210920E+00   2.774352750E+00
    5.000000000E+05   2.083473502E+02   2.082764007E+02  -3.405348361E-02  -4.663657212E+00  -2.005769940E+00   2.657887272E+00
    6.294627059E+05   2.072987205E+02   2.072794507E+02  -9.295630915E-03  -4.645178324E+00  -2.122381889E+00   2.522796435E+00
    7.924465962E+05   2.061688143E+02   2.062032877E+02   1.672098979E-02  -4.624523576E+00  -2.253352680E+00   2.371170896E+00
    9.976311575E+05   2.049533954E+02   2.050318236E+02   3.826637477E-02  -4.602083813E+00  -2.396213357E+00   2.205870456E+00
    1.255943216E+06   2.036505925E+02   2.037479430E+02   4.780271033E-02  -4.578202179E+00  -2.546040647E+00   2.032161533E+00
    1.581138830E+06   2.022610211E+02   2.023432505E+02   4.065510159E-02  -4.553131811E+00  -2.694197652E+00   1.858934159E+00
    1.990535853E+06   2.007877394E+02   2.008292541E+02   2.067594289E-02  -4.526997530E+00  -2.830950444E+00   1.696047086E+00
    2.505936168E+06   1.992360554E+02   1.992335167E+02  -1.274194460E-03  -4.499765121E+00  -2.950317255E+00   1.549447866E+00
    3.154786722E+06   1.976131031E+02   1.975822051E+02  -1.563555998E-02  -4.471221392E+00  -3.051616970E+00   1.419604422E+00
    3.971641174E+06   1.959277735E+02   1.958891300E+02  -1.972336278E-02  -4.440984539E+00  -3.136250007E+00   1.304734532E+00
    5.000000000E+06   1.941897941E+02   1.941602186E+02  -1.523022328E-02  -4.408483787E+00  -3.204690119E+00   1.203793668E+00
    6.294627059E+06   1.924082852E+02   1.923983372E+02  -5.170238815E-03  -4.372958906E+00  -3.256943267E+00   1.116015640E+00
    7.924465962E+06   1.905961443E+02   1.905967999E+02   3.439833296E-04  -4.333793257E+00  -3.292498542E+00   1.041294715E+00
    9.976311575E+06   1.887633623E+02   1.887362650E+02  -1.435519386E-02  -4.289660105E+00  -3.305469289E+00   9.841908161E-01
    1.255943216E+07   1.869184276E+02   1.868054862E+02  -6.042281402E-02  -4.239819588E+00  -3.278965941E+00   9.608536473E-01
    1.581138830E+07   1.850748476E+02   1.848378557E+02  -1.280519119E-01  -4.183502792E+00  -3.187784201E+00   9.957185907E-01
    1.990535853E+07   1.832395335E+02   1.829277434E+02  -1.701543839E-01  -4.119597392E+00  -3.012028137E+00   1.107569255E+00
    2.505936168E+07   1.814228229E+02   1.812010688E+02  -1.222305556E-01  -4.047358993E+00  -2.752022599E+00   1.295336394E+00
    3.154786722E+07   1.796335854E+02   1.797590627E+02   6.985176291E-02  -3.966129345E+00  -2.431208432E+00   1.534920913E+00
    3.971641174E+07   1.778802215E+02   1.786406404E+02   4.274892807E-01  -3.875425954E+00  -2.085050584E+00   1.790375370E+00
    5.000000000E+07   1.761706224E+02   1.778247140E+02   9.389145763E-01  -3.774975246E+00  -1.746477882E+00   2.028497364E+00
A1 fitting.   0 0.3E+00 30  0  1  0  1  0 0.5E-01 |             0.3      30       0       1       0       1       0       0

   @@@@@  @@@@@   Begin  A1  fitting for mode  IMODE = 1    @@@@@  @@@@@

Units :  Freq in Hz;  R, L, G, and C per kilometer;  R in Ohms,  L in Millihenries,  G in mhos,  and  C in microfarads;
Velocity in kilometers/sec;  travel time in msec;  A1 is dimensionless;  PHA1 in degrees.
     Freq        R          L         G          C       Velocity   Trav.time     A1        PHA1       Freq
  3.1416E+02 1.7316E+00 7.6901E-01 3.0000E-08 1.4999E-02 1.4549E+05 6.8732E-03 9.9811E-01-1.2372E-01 3.1416E+02
  3.9550E+02 1.7326E+00 7.6941E-01 3.0000E-08 1.4991E-02 1.6025E+05 6.2401E-03 9.9792E-01-1.4140E-01 3.9550E+02
  4.9791E+02 2.3914E-01 2.1689E+00 3.0000E-08 2.9010E-02 1.2533E+05 7.9792E-03 9.9956E-01-2.2763E-01 4.9791E+02
  6.2683E+02 2.7699E-01 2.1223E+00 3.0000E-08 2.9240E-02 1.2628E+05 7.9190E-03 9.9948E-01-2.8441E-01 6.2683E+02
  7.8913E+02 3.2467E-01 2.0732E+00 3.0000E-08 2.9456E-02 1.2736E+05 7.8521E-03 9.9939E-01-3.5502E-01 7.8913E+02
  9.9346E+02 3.8446E-01 2.0225E+00 3.0000E-08 2.9644E-02 1.2857E+05 7.7778E-03 9.9926E-01-4.4272E-01 9.9346E+02
  1.2507E+03 4.5840E-01 1.9710E+00 3.0000E-08 2.9803E-02 1.2992E+05 7.6969E-03 9.9911E-01-5.5155E-01 1.2507E+03
  1.5745E+03 5.4850E-01 1.9199E+00 3.0000E-08 2.9934E-02 1.3138E+05 7.6115E-03 9.9892E-01-6.8666E-01 1.5745E+03
  1.9822E+03 6.5739E-01 1.8706E+00 3.0000E-08 3.0033E-02 1.3290E+05 7.5243E-03 9.9869E-01-8.5455E-01 1.9822E+03
  2.4955E+03 7.8926E-01 1.8245E+00 3.0000E-08 3.0096E-02 1.3445E+05 7.4377E-03 9.9840E-01-1.0634E+00 2.4955E+03
  3.1416E+03 9.5039E-01 1.7821E+00 3.0000E-08 3.0124E-02 1.3600E+05 7.3529E-03 9.9805E-01-1.3235E+00 3.1416E+03
  3.9550E+03 1.1491E+00 1.7429E+00 3.0000E-08 3.0118E-02 1.3755E+05 7.2702E-03 9.9762E-01-1.6475E+00 3.9550E+03
  4.9791E+03 1.3954E+00 1.7065E+00 3.0000E-08 3.0085E-02 1.3910E+05 7.1891E-03 9.9708E-01-2.0509E+00 4.9791E+03
  6.2683E+03 1.7013E+00 1.6721E+00 3.0000E-08 3.0030E-02 1.4066E+05 7.1091E-03 9.9641E-01-2.5532E+00 6.2683E+03
  7.8913E+03 2.0813E+00 1.6394E+00 3.0000E-08 2.9955E-02 1.4224E+05 7.0302E-03 9.9557E-01-3.1786E+00 7.8913E+03
  9.9346E+03 2.5535E+00 1.6082E+00 3.0000E-08 2.9863E-02 1.4384E+05 6.9520E-03 9.9453E-01-3.9572E+00 9.9346E+03
  1.2507E+04 3.1407E+00 1.5784E+00 3.0000E-08 2.9755E-02 1.4546E+05 6.8747E-03 9.9322E-01-4.9264E+00 1.2507E+04
  1.5745E+04 3.8716E+00 1.5498E+00 3.0000E-08 2.9633E-02 1.4710E+05 6.7981E-03 9.9159E-01-6.1328E+00 1.5745E+04
  1.9822E+04 4.7819E+00 1.5224E+00 3.0000E-08 2.9497E-02 1.4876E+05 6.7221E-03 9.8956E-01-7.6344E+00 1.9822E+04
  2.4955E+04 5.9161E+00 1.4959E+00 3.0000E-08 2.9349E-02 1.5045E+05 6.6466E-03 9.8702E-01-9.5033E+00 2.4955E+04
  3.1416E+04 7.3300E+00 1.4703E+00 3.0000E-08 2.9189E-02 1.5217E+05 6.5717E-03 9.8385E-01-1.1829E+01 3.1416E+04
  3.9550E+04 9.0930E+00 1.4456E+00 3.0000E-08 2.9018E-02 1.5391E+05 6.4972E-03 9.7990E-01-1.4723E+01 3.9550E+04
  4.9791E+04 1.1291E+01 1.4217E+00 3.0000E-08 2.8837E-02 1.5569E+05 6.4231E-03 9.7497E-01-1.8324E+01 4.9791E+04
  6.2683E+04 1.4032E+01 1.3984E+00 3.0000E-08 2.8646E-02 1.5750E+05 6.3494E-03 9.6884E-01-2.2804E+01 6.2683E+04
  7.8913E+04 1.7450E+01 1.3758E+00 3.0000E-08 2.8447E-02 1.5934E+05 6.2761E-03 9.6122E-01-2.8377E+01 7.8913E+04
  9.9346E+04 2.1708E+01 1.3538E+00 3.0000E-08 2.8239E-02 1.6121E+05 6.2031E-03 9.5179E-01-3.5309E+01 9.9346E+04
  1.2507E+05 2.7013E+01 1.3324E+00 3.0000E-08 2.8024E-02 1.6312E+05 6.1305E-03 9.4012E-01-4.3931E+01 1.2507E+05
  1.5745E+05 3.3616E+01 1.3115E+00 3.0000E-08 2.7803E-02 1.6506E+05 6.0584E-03 9.2576E-01-5.4655E+01 1.5745E+05
  1.9822E+05 4.1830E+01 1.2911E+00 3.0000E-08 2.7577E-02 1.6704E+05 5.9866E-03 9.0815E-01-6.7992E+01 1.9822E+05
  2.4955E+05 5.2041E+01 1.2710E+00 3.0000E-08 2.7347E-02 1.6905E+05 5.9154E-03 8.8666E-01-8.4577E+01 2.4955E+05
  3.1416E+05 6.4723E+01 1.2514E+00 3.0000E-08 2.7114E-02 1.7110E+05 5.8446E-03 8.6059E-01-1.0520E+02 3.1416E+05
  3.9550E+05 8.0459E+01 1.2321E+00 3.0000E-08 2.6880E-02 1.7318E+05 5.7744E-03 8.2922E-01-1.3085E+02 3.9550E+05
  4.9791E+05 9.9963E+01 1.2131E+00 3.0000E-08 2.6645E-02 1.7529E+05 5.7048E-03 7.9180E-01-1.6275E+02 4.9791E+05
  6.2683E+05 1.2411E+02 1.1944E+00 3.0000E-08 2.6412E-02 1.7744E+05 5.6358E-03 7.4765E-01-2.0241E+02 6.2683E+05
  7.8913E+05 1.5398E+02 1.1760E+00 3.0000E-08 2.6181E-02 1.7961E+05 5.5676E-03 6.9626E-01-2.5173E+02 7.8913E+05
  9.9346E+05 1.9087E+02 1.1577E+00 3.0000E-08 2.5953E-02 1.8181E+05 5.5002E-03 6.3742E-01-3.1308E+02 9.9346E+05
  1.2507E+06 2.3639E+02 1.1396E+00 3.0000E-08 2.5732E-02 1.8404E+05 5.4336E-03 5.7136E-01-3.8937E+02 1.2507E+06
  1.5745E+06 2.9250E+02 1.1216E+00 3.0000E-08 2.5517E-02 1.8629E+05 5.3679E-03 4.9897E-01-4.8426E+02 1.5745E+06
  1.9822E+06 3.6158E+02 1.1037E+00 3.0000E-08 2.5311E-02 1.8856E+05 5.3032E-03 4.2195E-01-6.0230E+02 1.9822E+06
  2.4955E+06 4.4656E+02 1.0858E+00 3.0000E-08 2.5115E-02 1.9086E+05 5.2395E-03 3.4292E-01-7.4914E+02 2.4955E+06
  3.1416E+06 5.5100E+02 1.0678E+00 3.0000E-08 2.4930E-02 1.9317E+05 5.1768E-03 2.6535E-01-9.3183E+02 3.1416E+06
  3.9550E+06 6.7927E+02 1.0499E+00 3.0000E-08 2.4757E-02 1.9550E+05 5.1152E-03 1.9325E-01-1.1591E+03 3.9550E+06
  4.9791E+06 8.3669E+02 1.0319E+00 3.0000E-08 2.4597E-02 1.9784E+05 5.0546E-03 1.3058E-01-1.4420E+03 4.9791E+06
  6.2683E+06 1.0298E+03 1.0139E+00 3.0000E-08 2.4451E-02 2.0020E+05 4.9951E-03 8.0430E-02-1.7940E+03 6.2683E+06
   IKNEE = 2   curve zones  XKNEE :      1.699     5.999
   ###  Begin allocation loop number  1
  ---  Least square average error  D1 = 1.04050843E+00 ;   check error  D2 =  7.07157134E-01
       Number of poles  NPOLE = 6     Number of zeros  NZERO = 4
       Error criterion used: least-square check error less than   0.300   percent.
   ###  Begin allocation loop number  2
  ---  Least square average error  D1 = 9.15019339E-01 ;   check error  D2 =  2.55962225E-01
       Number of poles  NPOLE = 11     Number of zeros  NZERO = 9
       Error criterion used: least-square check error less than   0.300   percent.
The phase displacement TAU = 1000*TAUR = 4.55044174E-03  msec.   The travel time at  10.0**XDAT(NDATA) = 9.97631157E+05  Hz  equals
1000*TRAVHF = 4.93664572E-03  msec.
Curve type  IFTYPE = 2     Reference level  D1 = 8.18451008E+10     Number poles = 11     Number zeros = 9
Table of  A1  vs.  A1EQ  for mode 1                        P1PH  =  A1EQPH + OMEGA * TAU
    Frequency      A1MAG        A1EQMAG       DELMAG        A1PH        A1EQPH      DELPH        P1PH         TAU         DELTAU
    in Hertz      per unit      per unit      percent     degrees      degrees     degrees     per unit       msec        percent
   5.00000E+01  9.98111E-01  9.98108E-01 -2.84153E-04 -1.23718E-01 -1.26384E-01  2.66612E-03 -4.44762E-02  4.40232E-03 -3.25501E+00
   6.29463E+01  9.97919E-01  9.98106E-01  1.87400E-02 -1.41404E-01 -1.59107E-01  1.77030E-02 -5.59911E-02  3.76922E-03 -1.71680E+01
   7.92447E+01  9.99561E-01  9.98104E-01 -1.45834E-01 -2.27632E-01 -2.00302E-01  2.73303E-02 -7.04862E-02  5.50845E-03  2.10532E+01
   9.97631E+01  9.99485E-01  9.98099E-01 -1.38602E-01 -2.84408E-01 -2.52160E-01  3.22480E-02 -8.87323E-02  5.44835E-03  1.97323E+01
   1.25594E+02  9.99387E-01  9.98093E-01 -1.29519E-01 -3.55022E-01 -3.17442E-01  3.75807E-02 -1.11698E-01  5.38162E-03  1.82658E+01
   1.58114E+02  9.99264E-01  9.98082E-01 -1.18217E-01 -4.42717E-01 -3.99617E-01  4.31007E-02 -1.40601E-01  5.30764E-03  1.66402E+01
   1.99054E+02  9.99109E-01  9.98066E-01 -1.04413E-01 -5.51552E-01 -5.03051E-01  4.85005E-02 -1.76970E-01  5.22726E-03  1.48737E+01
   2.50594E+02  9.98918E-01  9.98040E-01 -8.79536E-02 -6.86657E-01 -6.33231E-01  5.34269E-02 -2.22718E-01  5.14267E-03  1.30147E+01
   3.15479E+02  9.98685E-01  9.97998E-01 -6.87770E-02 -8.54549E-01 -7.97045E-01  5.75041E-02 -2.80240E-01  5.05676E-03  1.11269E+01
   3.97164E+02  9.98401E-01  9.97933E-01 -4.68441E-02 -1.06343E+00 -1.00313E+00  6.02991E-02 -3.52513E-01  4.97218E-03  9.26798E+00
   5.00000E+02  9.98051E-01  9.97830E-01 -2.21598E-02 -1.32352E+00 -1.26230E+00  6.12260E-02 -4.43217E-01  4.89059E-03  7.47498E+00
   6.29463E+02  9.97619E-01  9.97669E-01  5.01696E-03 -1.64747E+00 -1.58801E+00  5.94529E-02 -5.56855E-01  4.81280E-03  5.76563E+00
   7.92447E+02  9.97081E-01  9.97418E-01  3.37982E-02 -2.05090E+00 -1.99700E+00  5.38994E-02 -6.98847E-01  4.73938E-03  4.15201E+00
   9.97631E+02  9.96410E-01  9.97030E-01  6.22400E-02 -2.55323E+00 -2.50984E+00  4.33818E-02 -8.75565E-01  4.67123E-03  2.65450E+00
   1.25594E+03  9.95572E-01  9.96438E-01  8.69710E-02 -3.17861E+00 -3.15168E+00  2.69285E-02 -1.09425E+00  4.61000E-03  1.30884E+00
   1.58114E+03  9.94527E-01  9.95553E-01  1.03106E-01 -3.95717E+00 -3.95290E+00  4.27086E-03 -1.36274E+00  4.55794E-03  1.64888E-01
   1.99054E+03  9.93223E-01  9.94261E-01  1.04548E-01 -4.92636E+00 -4.94988E+00  2.35195E-02 -1.68906E+00  4.51762E-03 -7.21278E-01
   2.50594E+03  9.91594E-01  9.92438E-01  8.50997E-02 -6.13278E+00 -6.18613E+00  5.33528E-02 -2.08101E+00  4.49130E-03 -1.29966E+00
   3.15479E+03  9.89560E-01  9.89961E-01  4.05237E-02 -7.63439E+00 -7.71413E+00  7.97379E-02 -2.54609E+00  4.48023E-03 -1.54290E+00
   3.97164E+03  9.87020E-01  9.86736E-01 -2.87010E-02 -9.50326E+00 -9.59835E+00  9.50919E-02 -3.09217E+00  4.48393E-03 -1.46156E+00
   5.00000E+03  9.83850E-01  9.82722E-01 -1.14575E-01 -1.18290E+01 -1.19201E+01  9.10740E-02 -3.72927E+00  4.49985E-03 -1.11191E+00
   6.29463E+03  9.79895E-01  9.77937E-01 -1.99857E-01 -1.47230E+01 -1.47842E+01  6.12136E-02 -4.47262E+00  4.52343E-03 -5.93639E-01
   7.92447E+03  9.74968E-01  9.72439E-01 -2.59431E-01 -1.83238E+01 -1.83285E+01  4.65218E-03 -5.34693E+00  4.54881E-03 -3.58369E-02
   9.97631E+03  9.68838E-01  9.66254E-01 -2.66698E-01 -2.28036E+01 -2.27332E+01  7.04242E-02 -6.39043E+00  4.57005E-03  4.30919E-01
   1.25594E+04  9.61223E-01  9.59258E-01 -2.04458E-01 -2.83765E+01 -2.82304E+01  1.46193E-01 -7.65601E+00  4.58278E-03  7.10561E-01
   1.58114E+04  9.51786E-01  9.51065E-01 -7.58043E-02 -3.53087E+01 -3.51094E+01  1.99336E-01 -9.20780E+00  4.58546E-03  7.69591E-01
   1.99054E+04  9.40124E-01  9.40981E-01  9.11849E-02 -4.39310E+01 -4.37219E+01  2.09107E-01 -1.11137E+01  4.57962E-03  6.41274E-01
   2.50594E+04  9.25762E-01  9.28058E-01  2.47977E-01 -5.46548E+01 -5.44889E+01  1.65847E-01 -1.34377E+01  4.56883E-03  4.03999E-01
   3.15479E+04  9.08148E-01  9.11222E-01  3.38485E-01 -6.79915E+01 -6.79147E+01  7.68492E-02 -1.62342E+01  4.55721E-03  1.48701E-01
   3.97164E+04  8.86655E-01  8.89451E-01  3.15257E-01 -8.45772E+01 -8.46093E+01  3.21448E-02 -1.95475E+01  4.54819E-03 -4.94065E-02
   5.00000E+04  8.60591E-01  8.61950E-01  1.58015E-01 -1.05203E+02 -1.05322E+02  1.19041E-01 -2.34137E+01  4.54383E-03 -1.45335E-01
   6.29463E+04  8.29217E-01  8.28341E-01 -1.05615E-01 -1.30851E+02 -1.30985E+02  1.33725E-01 -2.78689E+01  4.54454E-03 -1.29684E-01
   7.92447E+04  7.91795E-01  7.88727E-01 -3.87511E-01 -1.62746E+02 -1.62784E+02  3.83537E-02 -3.29691E+01  4.54910E-03 -2.95448E-02
   9.97631E+04  7.47649E-01  7.43453E-01 -5.61204E-01 -2.02409E+02 -2.02245E+02  1.64047E-01 -3.88173E+01  4.55501E-03  1.00379E-01
   1.25594E+05  6.96264E-01  6.92585E-01 -5.28446E-01 -2.51734E+02 -2.51317E+02  4.16812E-01 -4.55736E+01  4.55966E-03  2.02588E-01
   1.58114E+05  6.37420E-01  6.35582E-01 -2.88324E-01 -3.13076E+02 -3.12441E+02  6.34816E-01 -5.34256E+01  4.56159E-03  2.45088E-01
   1.99054E+05  5.71358E-01  5.71624E-01  4.65479E-02 -3.89368E+02 -3.88614E+02  7.54295E-01 -6.25326E+01  4.56097E-03  2.31321E-01
   2.50594E+05  4.98965E-01  5.00399E-01  2.87331E-01 -4.84261E+02 -4.83486E+02  7.74632E-01 -7.29740E+01  4.55903E-03  1.88699E-01
   3.15479E+05  4.21946E-01  4.22888E-01  2.23278E-01 -6.02298E+02 -6.01509E+02  7.89340E-01 -8.47046E+01  4.55739E-03  1.52735E-01
   3.97164E+05  3.42917E-01  3.41932E-01 -2.87392E-01 -7.49138E+02 -7.48107E+02  1.03076E+00 -9.74894E+01  4.55765E-03  1.58429E-01
   5.00000E+05  2.65347E-01  2.62410E-01 -1.10675E+00 -9.31826E+02 -9.29914E+02  1.91188E+00 -1.10834E+02  4.56106E-03  2.33418E-01
   6.29463E+05  1.93247E-01  1.90379E-01 -1.48397E+00 -1.15913E+03 -1.15516E+03  3.97777E+00 -1.23996E+02  4.56800E-03  3.85757E-01
   7.92447E+05  1.30580E-01  1.30939E-01  2.74343E-01 -1.44198E+03 -1.43429E+03  7.69499E+00 -1.36136E+02  4.57742E-03  5.92764E-01
   9.97631E+05  8.04304E-02  8.62045E-02  7.17893E+00 -1.79398E+03 -1.78085E+03  1.31275E+01 -1.46573E+02  4.58699E-03  8.03261E-01

=====   =====   Begin  Zc  fitting for mode  IMODE = 2    =====    =====

Units :  Freq in Hz;  R, L, G, and C per kilometer;  R in Ohms,  L in Millihenries,  G in mhos,  and  C in microfarads;
Zc  in Ohms  and  PHZC  in degrees.
     Freq        R          L         G          C          Zc        PHZC       Freq
  5.0000E+01 1.6730E+00 1.0623E+00 3.0000E-08 1.2871E-02 6.4953E+02-3.9147E+01 5.0000E+01
  6.2946E+01 2.0899E-01 2.2116E+00 3.0000E-08 2.8794E-02 2.8101E+02-6.6436E+00 6.2946E+01
  7.9245E+01 1.7339E+00 7.7000E-01 3.0000E-08 1.4979E-02 4.8795E+02-3.8651E+01 7.9245E+01
  9.9763E+01 1.7360E+00 7.7090E-01 3.0000E-08 1.4961E-02 4.3834E+02-3.7131E+01 9.9763E+01
  1.2559E+02 1.7391E+00 7.7225E-01 3.0000E-08 1.4935E-02 3.9541E+02-3.5271E+01 1.2559E+02
  1.5811E+02 1.7436E+00 7.7427E-01 3.0000E-08 1.4896E-02 3.5886E+02-3.3040E+01 1.5811E+02
  1.9905E+02 1.7504E+00 7.7721E-01 3.0000E-08 1.4839E-02 3.2845E+02-3.0431E+01 1.9905E+02
  2.5059E+02 1.7599E+00 7.8139E-01 3.0000E-08 1.4760E-02 3.0397E+02-2.7485E+01 2.5059E+02
  3.1548E+02 1.7729E+00 7.8703E-01 3.0000E-08 1.4653E-02 2.8514E+02-2.4297E+01 3.1548E+02
  3.9716E+02 1.7894E+00 7.9422E-01 3.0000E-08 1.4520E-02 2.7147E+02-2.1015E+01 3.9716E+02
  5.0000E+02 1.8090E+00 8.0267E-01 3.0000E-08 1.4366E-02 2.6222E+02-1.7808E+01 5.0000E+02
  6.2946E+02 1.8302E+00 8.1170E-01 3.0000E-08 1.4205E-02 2.5647E+02-1.4829E+01 6.2946E+02
  7.9245E+02 1.8514E+00 8.2044E-01 3.0000E-08 1.4053E-02 2.5318E+02-1.2178E+01 7.9245E+02
  9.9763E+02 1.8708E+00 8.2808E-01 3.0000E-08 1.3922E-02 2.5145E+02-9.9003E+00 9.9763E+02
  1.2559E+03 5.5631E-01 8.0800E-01 3.0000E-08 1.8535E-02 2.0919E+02-2.4873E+00 1.2559E+03
  1.5811E+03 6.1441E-01 7.7325E-01 3.0000E-08 1.9304E-02 2.0046E+02-2.2820E+00 1.5811E+03
  1.9905E+03 6.8601E-01 7.4912E-01 3.0000E-08 1.9842E-02 1.9457E+02-2.0904E+00 1.9905E+03
  2.5059E+03 7.7669E-01 7.3368E-01 3.0000E-08 2.0160E-02 1.9098E+02-1.9205E+00 2.5059E+03
  3.1548E+03 8.9182E-01 7.2445E-01 3.0000E-08 2.0310E-02 1.8905E+02-1.7747E+00 3.1548E+03
  3.9716E+03 1.0380E+00 7.1942E-01 3.0000E-08 2.0340E-02 1.8822E+02-1.6528E+00 3.9716E+03
  5.0000E+03 1.2236E+00 7.1720E-01 3.0000E-08 2.0290E-02 1.8815E+02-1.5529E+00 5.0000E+03
  6.2946E+03 1.4600E+00 7.1687E-01 3.0000E-08 2.0186E-02 1.8858E+02-1.4728E+00 6.2946E+03
  7.9245E+03 1.7618E+00 7.1789E-01 3.0000E-08 2.0043E-02 1.8937E+02-1.4100E+00 7.9245E+03
  9.9763E+03 2.1485E+00 7.1994E-01 3.0000E-08 1.9873E-02 1.9044E+02-1.3622E+00 9.9763E+03
  1.2559E+04 2.6451E+00 7.2282E-01 3.0000E-08 1.9681E-02 1.9175E+02-1.3270E+00 1.2559E+04
  1.5811E+04 3.2839E+00 7.2637E-01 3.0000E-08 1.9472E-02 1.9324E+02-1.3023E+00 1.5811E+04
  1.9905E+04 4.1068E+00 7.3032E-01 3.0000E-08 1.9253E-02 1.9486E+02-1.2868E+00 1.9905E+04
  2.5059E+04 5.1648E+00 7.3480E-01 3.0000E-08 1.9022E-02 1.9664E+02-1.2777E+00 2.5059E+04
  3.1548E+04 6.5260E+00 7.3924E-01 3.0000E-08 1.8795E-02 1.9842E+02-1.2748E+00 3.1548E+04
  3.9716E+04 8.2803E+00 7.4358E-01 3.0000E-08 1.8571E-02 2.0020E+02-1.2774E+00 3.9716E+04
  5.0000E+04 1.0543E+01 7.4777E-01 3.0000E-08 1.8353E-02 2.0195E+02-1.2846E+00 5.0000E+04
  6.2946E+04 1.3460E+01 7.5175E-01 3.0000E-08 1.8141E-02 2.0367E+02-1.2959E+00 6.2946E+04
  7.9245E+04 1.7218E+01 7.5546E-01 3.0000E-08 1.7935E-02 2.0534E+02-1.3103E+00 7.9245E+04
  9.9763E+04 2.2051E+01 7.5882E-01 3.0000E-08 1.7738E-02 2.0694E+02-1.3270E+00 9.9763E+04
  1.2559E+05 2.8251E+01 7.6178E-01 3.0000E-08 1.7550E-02 2.0846E+02-1.3453E+00 1.2559E+05
  1.5811E+05 3.6180E+01 7.6425E-01 3.0000E-08 1.7372E-02 2.0987E+02-1.3640E+00 1.5811E+05
  1.9905E+05 4.6279E+01 7.6616E-01 3.0000E-08 1.7205E-02 2.1114E+02-1.3825E+00 1.9905E+05
  2.5059E+05 5.9083E+01 7.6743E-01 3.0000E-08 1.7052E-02 2.1227E+02-1.3996E+00 2.5059E+05
  3.1548E+05 7.5226E+01 7.6800E-01 3.0000E-08 1.6913E-02 2.1322E+02-1.4145E+00 3.1548E+05
  3.9716E+05 9.5453E+01 7.6780E-01 3.0000E-08 1.6790E-02 2.1398E+02-1.4260E+00 3.9716E+05
  5.0000E+05 1.2062E+02 7.6678E-01 3.0000E-08 1.6684E-02 2.1452E+02-1.4333E+00 5.0000E+05
  6.2946E+05 1.5171E+02 7.6491E-01 3.0000E-08 1.6595E-02 2.1483E+02-1.4354E+00 6.2946E+05
  7.9245E+05 1.8980E+02 7.6216E-01 3.0000E-08 1.6526E-02 2.1489E+02-1.4316E+00 7.9245E+05
  9.9763E+05 2.3608E+02 7.5856E-01 3.0000E-08 1.6475E-02 2.1471E+02-1.4212E+00 9.9763E+05
  1.2559E+06 2.9182E+02 7.5413E-01 3.0000E-08 1.6445E-02 2.1428E+02-1.4037E+00 1.2559E+06
  1.5811E+06 3.5839E+02 7.4893E-01 3.0000E-08 1.6433E-02 2.1360E+02-1.3789E+00 1.5811E+06
  1.9905E+06 4.3721E+02 7.4303E-01 3.0000E-08 1.6441E-02 2.1271E+02-1.3468E+00 1.9905E+06
  2.5059E+06 5.2979E+02 7.3657E-01 3.0000E-08 1.6466E-02 2.1161E+02-1.3078E+00 2.5059E+06
  3.1548E+06 6.3753E+02 7.2959E-01 3.0000E-08 1.6508E-02 2.1033E+02-1.2621E+00 3.1548E+06
  3.9716E+06 7.6240E+02 7.2211E-01 3.0000E-08 1.6569E-02 2.0886E+02-1.2113E+00 3.9716E+06
  5.0000E+06 9.0684E+02 7.1474E-01 3.0000E-08 1.6635E-02 2.0737E+02-1.1563E+00 5.0000E+06
  6.2946E+06 1.0711E+03 7.0715E-01 3.0000E-08 1.6714E-02 2.0577E+02-1.0966E+00 6.2946E+06
  7.9245E+06 1.2572E+03 6.9929E-01 3.0000E-08 1.6809E-02 2.0404E+02-1.0340E+00 7.9245E+06
  9.9763E+06 1.4702E+03 6.9190E-01 3.0000E-08 1.6901E-02 2.0239E+02-9.7077E-01 9.9763E+06
  1.2559E+07 1.7116E+03 6.8469E-01 3.0000E-08 1.6998E-02 2.0075E+02-9.0719E-01 1.2559E+07
  1.5811E+07 1.9834E+03 6.7767E-01 3.0000E-08 1.7100E-02 1.9912E+02-8.4375E-01 1.5811E+07
  1.9905E+07 2.2904E+03 6.7099E-01 3.0000E-08 1.7201E-02 1.9754E+02-7.8168E-01 1.9905E+07
  2.5059E+07 2.6363E+03 6.6464E-01 3.0000E-08 1.7302E-02 1.9603E+02-7.2153E-01 2.5059E+07
  3.1548E+07 3.0257E+03 6.5865E-01 3.0000E-08 1.7402E-02 1.9458E+02-6.6380E-01 3.1548E+07
  3.9716E+07 3.4640E+03 6.5302E-01 3.0000E-08 1.7499E-02 1.9320E+02-6.0887E-01 3.9716E+07
  5.0000E+07 3.9569E+03 6.4774E-01 3.0000E-08 1.7594E-02 1.9189E+02-5.5698E-01 5.0000E+07
   IKNEE = 6   curve zones  XKNEE :      1.699     1.799     1.899     3.704     5.939     7.699
   ###  Begin allocation loop number  1
  ---  Least square average error  D1 = 1.89405356E+01 ;   check error  D2 =  1.71435259E+01
       Number of poles  NPOLE = 13     Number of zeros  NZERO = 13
       Error criterion used: least-square check error less than   0.300   percent.
   ###  Begin allocation loop number  2
  ---  Least square average error  D1 = 1.89368939E+01 ;   check error  D2 =  1.71394620E+01
       Number of poles  NPOLE = 14     Number of zeros  NZERO = 14
       Error criterion used: least-square check error less than   0.300   percent.
   ###  Begin allocation loop number  3
  ---  Least square average error  D1 = 1.88169512E+01 ;   check error  D2 =  1.69298196E+01
       Number of poles  NPOLE = 18     Number of zeros  NZERO = 18
       Error criterion used: least-square check error less than   0.300   percent.
   ###  Begin allocation loop number  4
  ---  Least square average error  D1 = 1.88129534E+01 ;   check error  D2 =  1.69260490E+01
       Number of poles  NPOLE = 23     Number of zeros  NZERO = 23
       Error criterion used: least-square check error less than   0.300   percent.
   ###  Begin allocation loop number  5
The number of poles  NPOLES = 31   in this loop exceeds the specified limit  NORMAX = 30
 --- The maximum tolerance criterion  EPSTOL = 1.69242672E-06   could not be met.
Curve type  IFTYPE = 1     Reference level  D1 = 1.91893100E+02     Number poles = 23     Number zeros = 23
Table of  Zc  vs.  ZCEQ  for mode  2   follows:
       Frequency             ZCMAG            ZCEQMAG           DELMAG             ZCPH            ZCEQPH            DELPH
       in Hertz             in Ohms           in Ohms         in percent         degrees          degrees           degrees
    5.000000000E+01   6.495330865E+02   4.972854208E+02  -2.343955510E+01  -3.914689779E+01  -2.066519993E+01   1.848169785E+01
    6.294627059E+01   2.810138207E+02   4.633591776E+02   6.488839462E+01  -6.643557189E+00  -2.181498381E+01   1.517142662E+01
    7.924465962E+01   4.879531693E+02   4.309238155E+02  -1.168746458E+01  -3.865066054E+01  -2.243541453E+01   1.621524601E+01
    9.976311575E+01   4.383391575E+02   4.010297681E+02  -8.511534659E+00  -3.713081486E+01  -2.259611970E+01   1.453469516E+01
    1.255943216E+02   3.954128305E+02   3.741347492E+02  -5.381231882E+00  -3.527116171E+01  -2.237102048E+01   1.290014123E+01
    1.581138830E+02   3.588589501E+02   3.504825166E+02  -2.334185476E+00  -3.303967900E+01  -2.184596302E+01   1.119371598E+01
    1.990535853E+02   3.284488531E+02   3.300614009E+02   4.909585912E-01  -3.043108886E+01  -2.114685605E+01   9.284232811E+00
    2.505936168E+02   3.039723345E+02   3.124502146E+02   2.789030148E+00  -2.748477497E+01  -2.042086883E+01   7.063906135E+00
    3.154786722E+02   2.851380692E+02   2.968974116E+02   4.124087126E+00  -2.429693138E+01  -1.978224463E+01   4.514686759E+00
    3.971641174E+02   2.714659564E+02   2.825767209E+02   4.092875820E+00  -2.101491553E+01  -1.927387002E+01   1.741045501E+00
    5.000000000E+02   2.622240456E+02   2.688067708E+02   2.510343881E+00  -1.780842033E+01  -1.886198941E+01   1.053569081E+00
    6.294627059E+02   2.564660178E+02   2.551691709E+02  -5.056603170E-01  -1.482874698E+01  -1.844523029E+01   3.616483306E+00
    7.924465962E+02   2.531763890E+02   2.415967417E+02  -4.573746919E+00  -1.217785959E+01  -1.786828030E+01   5.690420717E+00
    9.976311575E+02   2.514491062E+02   2.284356403E+02  -9.152335561E+00  -9.900347497E+00  -1.695852339E+01   7.058175894E+00
    1.255943216E+03   2.091881930E+02   2.163592634E+02   3.428047395E+00  -2.487277888E+00  -1.559482604E+01   1.310754815E+01
    1.581138830E+03   2.004593303E+02   2.060906283E+02   2.809197248E+00  -2.281954241E+00  -1.377206463E+01   1.149011039E+01
    1.990535853E+03   1.945665018E+02   1.981027213E+02   1.817486293E+00  -2.090392264E+00  -1.160929884E+01   9.518906571E+00
    2.505936168E+03   1.909833462E+02   1.924979003E+02   7.930293804E-01  -1.920509147E+00  -9.296598195E+00   7.376089048E+00
    3.154786722E+03   1.890456185E+02   1.890811100E+02   1.877408660E-02  -1.774740783E+00  -7.026912065E+00   5.252171282E+00
    3.971641174E+03   1.882234655E+02   1.874964641E+02  -3.862437846E-01  -1.652772490E+00  -4.954566355E+00   3.301793865E+00
    5.000000000E+03   1.881467291E+02   1.873209171E+02  -4.389191284E-01  -1.552903667E+00  -3.182590037E+00   1.629686370E+00
    6.294627059E+03   1.885762124E+02   1.881079495E+02  -2.483149471E-01  -1.472808731E+00  -1.759993540E+00   2.871848091E-01
    7.924465962E+03   1.893680829E+02   1.894300963E+02   3.274752711E-02  -1.410021731E+00  -6.804659627E-01   7.295557685E-01
    9.976311575E+03   1.904405485E+02   1.909439385E+02   2.643292065E-01  -1.362162654E+00   1.096560544E-01   1.471818708E+00
    1.255943216E+04   1.917451102E+02   1.924449840E+02   3.650022043E-01  -1.326973183E+00   6.888852842E-01   2.015858467E+00
    1.581138830E+04   1.932429400E+02   1.938724638E+02   3.257680588E-01  -1.302327068E+00   1.133074798E+00   2.435401867E+00
    1.990535853E+04   1.948614643E+02   1.952662152E+02   2.077121069E-01  -1.286818559E+00   1.496285935E+00   2.783104495E+00
    2.505936168E+04   1.966374000E+02   1.967060622E+02   3.491818527E-02  -1.277744739E+00   1.804626352E+00   3.082371091E+00
    3.154786722E+04   1.984217261E+02   1.982585764E+02  -8.222368105E-02  -1.274801628E+00   2.060396703E+00   3.335198331E+00
    3.971641174E+04   2.001978433E+02   1.999438992E+02  -1.268465394E-01  -1.277350884E+00   2.252479980E+00   3.529830864E+00
    5.000000000E+04   2.019525881E+02   2.017291174E+02  -1.106550503E-01  -1.284646308E+00   2.368536954E+00   3.653183262E+00
    6.294627059E+04   2.036722501E+02   2.035462046E+02  -6.188644307E-02  -1.295901961E+00   2.403972311E+00   3.699874272E+00
    7.924465962E+04   2.053414959E+02   2.053215267E+02  -9.724875584E-03  -1.310311631E+00   2.364355071E+00   3.674666702E+00
    9.976311575E+04   2.069431231E+02   2.069992476E+02   2.712073768E-02  -1.327048075E+00   2.261729992E+00   3.588778066E+00
    1.255943216E+05   2.084580868E+02   2.085465794E+02   4.245101701E-02  -1.345255942E+00   2.108801407E+00   3.454057349E+00
    1.581138830E+05   2.098656926E+02   2.099443687E+02   3.748880122E-02  -1.364045037E+00   1.915799251E+00   3.279844288E+00
    1.990535853E+05   2.111439642E+02   2.111787386E+02   1.646951697E-02  -1.382487401E+00   1.691030894E+00   3.073518295E+00
    2.505936168E+05   2.122702123E+02   2.122418209E+02  -1.337512827E-02  -1.399620409E+00   1.441840164E+00   2.841460574E+00
    3.154786722E+05   2.132218140E+02   2.131338939E+02  -4.123406303E-02  -1.414457483E+00   1.173628127E+00   2.588085610E+00
    3.971641174E+05   2.139771915E+02   2.138582071E+02  -5.560613476E-02  -1.426007503E+00   8.883324332E-01   2.314339936E+00
    5.000000000E+05   2.145169487E+02   2.144106691E+02  -4.954366130E-02  -1.433303309E+00   5.847822724E-01   2.018085581E+00
    6.294627059E+05   2.148250922E+02   2.147732144E+02  -2.414887450E-02  -1.435438644E+00   2.612930510E-01   1.696731695E+00
    7.924465962E+05   2.148902407E+02   2.149160350E+02   1.200347952E-02  -1.431611565E+00  -8.127400645E-02   1.350337558E+00
    9.976311575E+05   2.147066997E+02   2.148058956E+02   4.620067139E-02  -1.421170900E+00  -4.377057289E-01   9.834651709E-01
    1.255943216E+06   2.142752823E+02   2.144157187E+02   6.554017791E-02  -1.403660988E+00  -7.979273466E-01   6.057336413E-01
    1.581138830E+06   2.136037632E+02   2.137351741E+02   6.152084104E-02  -1.378859125E+00  -1.147405289E+00   2.314538363E-01
    1.990535853E+06   2.127068864E+02   2.127820051E+02   3.531559835E-02  -1.346800144E+00  -1.469442412E+00   1.226422682E-01
    2.505936168E+06   2.116126906E+02   2.116056074E+02  -3.347261476E-03  -1.307771361E+00  -1.750271265E+00   4.424999043E-01
    3.154786722E+06   2.103293835E+02   2.102721342E+02  -2.721884860E-02  -1.262061737E+00  -1.984413114E+00   7.223513770E-01
    3.971641174E+06   2.088555632E+02   2.088367529E+02  -9.006382410E-03  -1.211337799E+00  -2.175172303E+00   9.638345039E-01
    5.000000000E+06   2.073679917E+02   2.073261505E+02  -2.017724961E-02  -1.156348333E+00  -2.329014178E+00   1.172665845E+00
    6.294627059E+06   2.057664007E+02   2.057445658E+02  -1.061152010E-02  -1.096632055E+00  -2.449048003E+00   1.352415948E+00
    7.924465962E+06   2.040351191E+02   2.040913744E+02   2.757139766E-02  -1.033984271E+00  -2.532574290E+00   1.498590019E+00
    9.976311575E+06   2.023888411E+02   2.023742704E+02  -7.199370135E-03  -9.707678251E-01  -2.571762964E+00   1.600995138E+00
    1.255943216E+07   2.007504781E+02   2.006194761E+02  -6.525613292E-02  -9.071931743E-01  -2.554887892E+00   1.647694717E+00
    1.581138830E+07   1.991186254E+02   1.988838617E+02  -1.179013915E-01  -8.437521789E-01  -2.469807271E+00   1.626055092E+00
    1.990535853E+07   1.975422174E+02   1.972558674E+02  -1.449563769E-01  -7.816755568E-01  -2.311747511E+00   1.530071954E+00
    2.505936168E+07   1.960253938E+02   1.958303051E+02  -9.952219174E-02  -7.215262043E-01  -2.090549693E+00   1.369023488E+00
    3.154786722E+07   1.945765485E+02   1.946706208E+02   4.834723176E-02  -6.638016861E-01  -1.829734881E+00   1.165933195E+00
    3.971641174E+07   1.931991058E+02   1.937890736E+02   3.053677463E-01  -6.088702395E-01  -1.557523058E+00   9.486528184E-01
    5.000000000E+07   1.918931004E+02   1.931552618E+02   6.577419277E-01  -5.569825418E-01  -1.297392602E+00   7.404100598E-01

   @@@@@  @@@@@   Begin  A1  fitting for mode  IMODE = 2    @@@@@  @@@@@

Units :  Freq in Hz;  R, L, G, and C per kilometer;  R in Ohms,  L in Millihenries,  G in mhos,  and  C in microfarads;
Velocity in kilometers/sec;  travel time in msec;  A1 is dimensionless;  PHA1 in degrees.
     Freq        R          L         G          C       Velocity   Trav.time     A1        PHA1       Freq
  3.1416E+02 1.6730E+00 1.0623E+00 3.0000E-08 1.2871E-02 1.5517E+05 6.4445E-03 9.9833E-01-1.1600E-01 3.1416E+02
  3.9550E+02 2.0899E-01 2.2116E+00 3.0000E-08 2.8794E-02 1.2446E+05 8.0347E-03 9.9962E-01-1.8207E-01 3.9550E+02
  4.9791E+02 1.7339E+00 7.7000E-01 3.0000E-08 1.4979E-02 1.7575E+05 5.6898E-03 9.9772E-01-1.6232E-01 4.9791E+02
  6.2683E+02 1.7360E+00 7.7090E-01 3.0000E-08 1.4961E-02 1.9172E+05 5.2159E-03 9.9751E-01-1.8733E-01 6.2683E+02
  7.8913E+02 1.7391E+00 7.7225E-01 3.0000E-08 1.4935E-02 2.0778E+05 4.8128E-03 9.9730E-01-2.1761E-01 7.8913E+02
  9.9346E+02 1.7436E+00 7.7427E-01 3.0000E-08 1.4896E-02 2.2345E+05 4.4753E-03 9.9710E-01-2.5474E-01 9.9346E+02
  1.2507E+03 1.7504E+00 7.7721E-01 3.0000E-08 1.4839E-02 2.3818E+05 4.1985E-03 9.9691E-01-3.0086E-01 1.2507E+03
  1.5745E+03 1.7599E+00 7.8139E-01 3.0000E-08 1.4760E-02 2.5142E+05 3.9775E-03 9.9674E-01-3.5882E-01 1.5745E+03
  1.9822E+03 1.7729E+00 7.8703E-01 3.0000E-08 1.4653E-02 2.6272E+05 3.8063E-03 9.9659E-01-4.3229E-01 1.9822E+03
  2.4955E+03 1.7894E+00 7.9422E-01 3.0000E-08 1.4520E-02 2.7186E+05 3.6783E-03 9.9647E-01-5.2592E-01 2.4955E+03
  3.1416E+03 1.8090E+00 8.0267E-01 3.0000E-08 1.4366E-02 2.7887E+05 3.5859E-03 9.9638E-01-6.4546E-01 3.1416E+03
  3.9550E+03 1.8302E+00 8.1170E-01 3.0000E-08 1.4205E-02 2.8398E+05 3.5213E-03 9.9631E-01-7.9796E-01 3.9550E+03
  4.9791E+03 1.8514E+00 8.2044E-01 3.0000E-08 1.4053E-02 2.8757E+05 3.4775E-03 9.9626E-01-9.9205E-01 4.9791E+03
  6.2683E+03 1.8708E+00 8.2808E-01 3.0000E-08 1.3922E-02 2.9000E+05 3.4483E-03 9.9623E-01-1.2384E+00 6.2683E+03
  7.8913E+03 5.5631E-01 8.0800E-01 3.0000E-08 1.8535E-02 2.5816E+05 3.8735E-03 9.9867E-01-1.7514E+00 7.8913E+03
  9.9346E+03 6.1441E-01 7.7325E-01 3.0000E-08 1.9304E-02 2.5863E+05 3.8666E-03 9.9846E-01-2.2009E+00 9.9346E+03
  1.2507E+04 6.8601E-01 7.4912E-01 3.0000E-08 1.9842E-02 2.5921E+05 3.8579E-03 9.9823E-01-2.7646E+00 1.2507E+04
  1.5745E+04 7.7669E-01 7.3368E-01 3.0000E-08 2.0160E-02 2.5987E+05 3.8481E-03 9.9796E-01-3.4715E+00 1.5745E+04
  1.9822E+04 8.9182E-01 7.2445E-01 3.0000E-08 2.0310E-02 2.6058E+05 3.8377E-03 9.9764E-01-4.3585E+00 1.9822E+04
  2.4955E+04 1.0380E+00 7.1942E-01 3.0000E-08 2.0340E-02 2.6131E+05 3.8269E-03 9.9724E-01-5.4717E+00 2.4955E+04
  3.1416E+04 1.2236E+00 7.1720E-01 3.0000E-08 2.0290E-02 2.6205E+05 3.8161E-03 9.9675E-01-6.8690E+00 3.1416E+04
  3.9550E+04 1.4600E+00 7.1687E-01 3.0000E-08 2.0186E-02 2.6279E+05 3.8053E-03 9.9613E-01-8.6230E+00 3.9550E+04
  4.9791E+04 1.7618E+00 7.1789E-01 3.0000E-08 2.0043E-02 2.6354E+05 3.7944E-03 9.9535E-01-1.0825E+01 4.9791E+04
  6.2683E+04 2.1485E+00 7.1994E-01 3.0000E-08 1.9873E-02 2.6430E+05 3.7836E-03 9.9437E-01-1.3589E+01 6.2683E+04
  7.8913E+04 2.6451E+00 7.2282E-01 3.0000E-08 1.9681E-02 2.6506E+05 3.7727E-03 9.9312E-01-1.7058E+01 7.8913E+04
  9.9346E+04 3.2839E+00 7.2637E-01 3.0000E-08 1.9472E-02 2.6583E+05 3.7618E-03 9.9153E-01-2.1412E+01 9.9346E+04
  1.2507E+05 4.1068E+00 7.3032E-01 3.0000E-08 1.9253E-02 2.6661E+05 3.7508E-03 9.8951E-01-2.6878E+01 1.2507E+05
  1.5745E+05 5.1648E+00 7.3480E-01 3.0000E-08 1.9022E-02 2.6741E+05 3.7396E-03 9.8695E-01-3.3736E+01 1.5745E+05
  1.9822E+05 6.5260E+00 7.3924E-01 3.0000E-08 1.8795E-02 2.6821E+05 3.7284E-03 9.8368E-01-4.2344E+01 1.9822E+05
  2.4955E+05 8.2803E+00 7.4358E-01 3.0000E-08 1.8571E-02 2.6903E+05 3.7170E-03 9.7952E-01-5.3146E+01 2.4955E+05
  3.1416E+05 1.0543E+01 7.4777E-01 3.0000E-08 1.8353E-02 2.6987E+05 3.7055E-03 9.7423E-01-6.6699E+01 3.1416E+05
  3.9550E+05 1.3460E+01 7.5175E-01 3.0000E-08 1.8141E-02 2.7072E+05 3.6938E-03 9.6749E-01-8.3705E+01 3.9550E+05
  4.9791E+05 1.7218E+01 7.5546E-01 3.0000E-08 1.7935E-02 2.7160E+05 3.6819E-03 9.5893E-01-1.0504E+02 4.9791E+05
  6.2683E+05 2.2051E+01 7.5882E-01 3.0000E-08 1.7738E-02 2.7250E+05 3.6698E-03 9.4810E-01-1.3180E+02 6.2683E+05
  7.8913E+05 2.8251E+01 7.6178E-01 3.0000E-08 1.7550E-02 2.7342E+05 3.6574E-03 9.3446E-01-1.6536E+02 7.8913E+05
  9.9346E+05 3.6180E+01 7.6425E-01 3.0000E-08 1.7372E-02 2.7437E+05 3.6447E-03 9.1739E-01-2.0746E+02 9.9346E+05
  1.2507E+06 4.6279E+01 7.6616E-01 3.0000E-08 1.7205E-02 2.7535E+05 3.6318E-03 8.9617E-01-2.6025E+02 1.2507E+06
  1.5745E+06 5.9083E+01 7.6743E-01 3.0000E-08 1.7052E-02 2.7635E+05 3.6186E-03 8.7004E-01-3.2645E+02 1.5745E+06
  1.9822E+06 7.5226E+01 7.6800E-01 3.0000E-08 1.6913E-02 2.7738E+05 3.6052E-03 8.3823E-01-4.0945E+02 1.9822E+06
  2.4955E+06 9.5453E+01 7.6780E-01 3.0000E-08 1.6790E-02 2.7843E+05 3.5916E-03 8.0002E-01-5.1352E+02 2.4955E+06
  3.1416E+06 1.2062E+02 7.6678E-01 3.0000E-08 1.6684E-02 2.7950E+05 3.5778E-03 7.5484E-01-6.4400E+02 3.1416E+06
  3.9550E+06 1.5171E+02 7.6491E-01 3.0000E-08 1.6595E-02 2.8059E+05 3.5640E-03 7.0242E-01-8.0762E+02 3.9550E+06
  4.9791E+06 1.8980E+02 7.6216E-01 3.0000E-08 1.6526E-02 2.8168E+05 3.5501E-03 6.4290E-01-1.0128E+03 4.9791E+06
  6.2683E+06 2.3608E+02 7.5856E-01 3.0000E-08 1.6475E-02 2.8278E+05 3.5363E-03 5.7699E-01-1.2700E+03 6.2683E+06
  7.8913E+06 2.9182E+02 7.5413E-01 3.0000E-08 1.6445E-02 2.8388E+05 3.5226E-03 5.0603E-01-1.5927E+03 7.8913E+06
  9.9346E+06 3.5839E+02 7.4893E-01 3.0000E-08 1.6433E-02 2.8496E+05 3.5092E-03 4.3207E-01-1.9975E+03 9.9346E+06
  1.2507E+07 4.3721E+02 7.4303E-01 3.0000E-08 1.6441E-02 2.8603E+05 3.4961E-03 3.5772E-01-2.5053E+03 1.2507E+07
  1.5745E+07 5.2979E+02 7.3657E-01 3.0000E-08 1.6466E-02 2.8707E+05 3.4835E-03 2.8589E-01-3.1426E+03 1.5745E+07
  1.9822E+07 6.3753E+02 7.2959E-01 3.0000E-08 1.6508E-02 2.8807E+05 3.4713E-03 2.1961E-01-3.9425E+03 1.9822E+07
  2.4955E+07 7.6240E+02 7.2211E-01 3.0000E-08 1.6569E-02 2.8904E+05 3.4598E-03 1.6112E-01-4.9467E+03 2.4955E+07
  3.1416E+07 9.0684E+02 7.1474E-01 3.0000E-08 1.6635E-02 2.8995E+05 3.4488E-03 1.1225E-01-6.2079E+03 3.1416E+07
  3.9550E+07 1.0711E+03 7.0715E-01 3.0000E-08 1.6714E-02 2.9082E+05 3.4386E-03 7.4032E-02-7.7920E+03 3.9550E+07
   IKNEE = 2   curve zones  XKNEE :      1.699     6.799
   ###  Begin allocation loop number  1
  ---  Least square average error  D1 = 5.50316406E-01 ;   check error  D2 =  3.23261093E-01
       Number of poles  NPOLE = 11     Number of zeros  NZERO = 9
       Error criterion used: least-square check error less than   0.300   percent.
   ###  Begin allocation loop number  2
  ---  Least square average error  D1 = 5.48400852E-01 ;   check error  D2 =  3.19506778E-01
       Number of poles  NPOLE = 12     Number of zeros  NZERO = 10
       Error criterion used: least-square check error less than   0.300   percent.
   ###  Begin allocation loop number  3
  ---  Least square average error  D1 = 5.48072700E-01 ;   check error  D2 =  3.18857928E-01
       Number of poles  NPOLE = 13     Number of zeros  NZERO = 11
       Error criterion used: least-square check error less than   0.300   percent.
   ###  Begin allocation loop number  4
  ---  Least square average error  D1 = 4.91050343E-01 ;   check error  D2 =  4.21340436E-01
       Number of poles  NPOLE = 16     Number of zeros  NZERO = 14
       Error criterion used: least-square check error less than   0.300   percent.
   ###  Begin allocation loop number  5
  ---  Least square average error  D1 = 3.59315956E-01 ;   check error  D2 =  3.00110051E-01
       Number of poles  NPOLE = 21     Number of zeros  NZERO = 19
       Error criterion used: least-square check error less than   0.300   percent.
   ###  Begin allocation loop number  6
  ---  Least square average error  D1 = 3.52568769E-01 ;   check error  D2 =  1.51684803E-01
       Number of poles  NPOLE = 23     Number of zeros  NZERO = 21
       Error criterion used: least-square check error less than   0.300   percent.
The phase displacement TAU = 1000*TAUR = 3.37622997E-03  msec.   The travel time at  10.0**XDAT(NDATA) = 6.29462706E+06  Hz  equals
1000*TRAVHF = 3.42899580E-03  msec.
Curve type  IFTYPE = 2     Reference level  D1 = 2.81739140E+12     Number poles = 23     Number zeros = 21
Table of  A1  vs.  A1EQ  for mode 2                        P1PH  =  A1EQPH + OMEGA * TAU
    Frequency      A1MAG        A1EQMAG       DELMAG        A1PH        A1EQPH      DELPH        P1PH         TAU         DELTAU
    in Hertz      per unit      per unit      percent     degrees      degrees     degrees     per unit       msec        percent
   5.00000E+01  9.98328E-01  9.98018E-01 -3.10767E-02 -1.16000E-01 -9.98566E-02  1.61437E-02 -3.90844E-02  4.27310E-03  2.65643E+01
   6.29463E+01  9.99621E-01  9.97898E-01 -1.72410E-01 -1.82072E-01 -1.20783E-01  6.12889E-02 -4.42752E-02  6.08087E-03  8.01082E+01
   7.92447E+01  9.97718E-01  9.97759E-01  4.11390E-03 -1.62319E-01 -1.44876E-01  1.74426E-02 -4.85591E-02  3.98765E-03  1.81095E+01
   9.97631E+01  9.97511E-01  9.97614E-01  1.02943E-02 -1.87329E-01 -1.72918E-01  1.44104E-02 -5.16619E-02  3.77747E-03  1.18842E+01
   1.25594E+02  9.97303E-01  9.97476E-01  1.73952E-02 -2.17605E-01 -2.06431E-01  1.11743E-02 -5.37782E-02  3.62337E-03  7.32005E+00
   1.58114E+02  9.97100E-01  9.97359E-01  2.59568E-02 -2.54737E-01 -2.47745E-01  6.99165E-03 -5.55671E-02  3.49906E-03  3.63811E+00
   1.99054E+02  9.96909E-01  9.97266E-01  3.57872E-02 -3.00864E-01 -2.99876E-01  9.87920E-04 -5.79380E-02  3.39002E-03  4.08336E-01
   2.50594E+02  9.96737E-01  9.97197E-01  4.60975E-02 -3.58824E-01 -3.66396E-01  7.57211E-03 -6.18135E-02  3.29229E-03 -2.48606E+00
   3.15479E+02  9.96590E-01  9.97147E-01  5.58918E-02 -4.32294E-01 -4.51464E-01  1.91700E-02 -6.80176E-02  3.20744E-03 -4.99941E+00
   3.97164E+02  9.96471E-01  9.97112E-01  6.43431E-02 -5.25923E-01 -5.60022E-01  3.40994E-02 -7.72920E-02  3.13774E-03 -7.06386E+00
   5.00000E+02  9.96380E-01  9.97087E-01  7.09901E-02 -6.45462E-01 -6.98099E-01  5.26366E-02 -9.03776E-02  3.08380E-03 -8.66130E+00
   6.29463E+02  9.96312E-01  9.97066E-01  7.57285E-02 -7.97958E-01 -8.73183E-01  7.52248E-02 -1.08107E-01  3.04427E-03 -9.83233E+00
   7.92447E+02  9.96263E-01  9.97046E-01  7.86674E-02 -9.92054E-01 -1.09466E+00  1.02610E-01 -1.31490E-01  3.01655E-03 -1.06533E+01
   9.97631E+02  9.96227E-01  9.97023E-01  7.99549E-02 -1.23844E+00 -1.37436E+00  1.35913E-01 -1.61792E-01  2.99780E-03 -1.12087E+01
   1.25594E+03  9.98667E-01  9.96993E-01 -1.67644E-01 -1.75137E+00 -1.72714E+00  2.42395E-02 -2.00608E-01  3.42984E-03  1.58789E+00
   1.58114E+03  9.98464E-01  9.96947E-01 -1.51932E-01 -2.20090E+00 -2.17172E+00  2.91841E-02 -2.49937E-01  3.42750E-03  1.51859E+00
   1.99054E+03  9.98235E-01  9.96879E-01 -1.35795E-01 -2.76456E+00 -2.73164E+00  3.29206E-02 -3.12259E-01  3.42217E-03  1.36070E+00
   2.50594E+03  9.97965E-01  9.96774E-01 -1.19305E-01 -3.47152E+00 -3.43643E+00  3.50894E-02 -3.90608E-01  3.41513E-03  1.15205E+00
   3.15479E+03  9.97640E-01  9.96614E-01 -1.02868E-01 -4.35852E+00 -4.32309E+00  3.54375E-02 -4.88624E-01  3.40743E-03  9.24183E-01
   3.97164E+03  9.97243E-01  9.96372E-01 -8.72612E-02 -5.47172E+00 -5.43788E+00  3.38442E-02 -6.10576E-01  3.39990E-03  7.01099E-01
   5.00000E+03  9.96750E-01  9.96016E-01 -7.35659E-02 -6.86901E+00 -6.83857E+00  3.04374E-02 -7.61358E-01  3.39314E-03  5.00845E-01
   6.29463E+03  9.96132E-01  9.95506E-01 -6.28752E-02 -8.62300E+00 -8.59726E+00  2.57436E-02 -9.46501E-01  3.38759E-03  3.36484E-01
   7.92447E+03  9.95355E-01  9.94800E-01 -5.57100E-02 -1.08248E+01 -1.08041E+01  2.07269E-02 -1.17234E+00  3.38350E-03  2.15194E-01
   9.97631E+03  9.94371E-01  9.93860E-01 -5.13296E-02 -1.35887E+01 -1.35721E+01  1.65386E-02 -1.44650E+00  3.38083E-03  1.36394E-01
   1.25594E+04  9.93122E-01  9.92651E-01 -4.74204E-02 -1.70579E+01 -1.70440E+01  1.39246E-02 -1.77873E+00  3.37931E-03  9.12175E-02
   1.58114E+04  9.91534E-01  9.91131E-01 -4.06736E-02 -2.14123E+01 -2.13998E+01  1.25042E-02 -2.18200E+00  3.37843E-03  6.50656E-02
   1.99054E+04  9.89512E-01  9.89235E-01 -2.79701E-02 -2.68776E+01 -2.68671E+01  1.05159E-02 -2.67329E+00  3.37770E-03  4.34652E-02
   2.50594E+04  9.86947E-01  9.86846E-01 -1.01755E-02 -3.37363E+01 -3.37319E+01  4.39923E-03 -3.27367E+00  3.37672E-03  1.44435E-02
   3.15479E+04  9.83683E-01  9.83775E-01  9.40245E-03 -4.23439E+01 -4.23521E+01  8.16279E-03 -4.00745E+00  3.37551E-03 -2.12880E-02
   3.97164E+04  9.79524E-01  9.79760E-01  2.40741E-02 -5.31456E+01 -5.31737E+01  2.81552E-02 -4.90071E+00  3.37426E-03 -5.83249E-02
   5.00000E+04  9.74226E-01  9.74493E-01  2.73645E-02 -6.66993E+01 -6.67527E+01  5.34051E-02 -5.98056E+00  3.37326E-03 -8.78776E-02
   6.29463E+04  9.67486E-01  9.67659E-01  1.79216E-02 -8.37045E+01 -8.37838E+01  7.93138E-02 -7.27624E+00  3.37273E-03 -1.03668E-01
   7.92447E+04  9.58929E-01  9.58951E-01  2.34726E-03 -1.05038E+02 -1.05140E+02  1.01956E-01 -8.82263E+00  3.37266E-03 -1.05854E-01
   9.97631E+04  9.48101E-01  9.48031E-01 -7.32469E-03 -1.31799E+02 -1.31921E+02  1.21893E-01 -1.06643E+01  3.37284E-03 -1.00525E-01
   1.25594E+05  9.34463E-01  9.34455E-01 -9.05981E-04 -1.65364E+02 -1.65510E+02  1.45859E-01 -1.28571E+01  3.37300E-03 -9.55496E-02
   1.58114E+05  9.17388E-01  9.17592E-01  2.22372E-02 -2.07460E+02 -2.07645E+02  1.85068E-01 -1.54665E+01  3.37298E-03 -9.62999E-02
   1.99054E+05  8.96169E-01  8.96600E-01  4.81391E-02 -2.60250E+02 -2.60501E+02  2.50858E-01 -1.85625E+01  3.37273E-03 -1.03687E-01
   2.50594E+05  8.70042E-01  8.70460E-01  4.80708E-02 -3.26446E+02 -3.26794E+02  3.47779E-01 -2.22114E+01  3.37237E-03 -1.14182E-01
   3.15479E+05  8.38232E-01  8.38148E-01 -1.00037E-02 -4.09448E+02 -4.09913E+02  4.65540E-01 -2.64669E+01  3.37213E-03 -1.21409E-01
   3.97164E+05  8.00020E-01  7.98942E-01 -1.34760E-01 -5.13518E+02 -5.14096E+02  5.77772E-01 -3.13658E+01  3.37219E-03 -1.19688E-01
   5.00000E+05  7.54845E-01  7.52692E-01 -2.85134E-01 -6.44005E+02 -6.44661E+02  6.56665E-01 -3.69400E+01  3.37258E-03 -1.08054E-01
   6.29463E+05  7.02424E-01  6.99806E-01 -3.72775E-01 -8.07616E+02 -8.08316E+02  7.00422E-01 -4.32401E+01  3.37314E-03 -9.15493E-02
   7.92447E+05  6.42903E-01  6.40920E-01 -3.08396E-01 -1.01277E+03 -1.01353E+03  7.55541E-01 -5.03534E+01  3.37358E-03 -7.84429E-02
   9.97631E+05  5.76985E-01  5.76544E-01 -7.64570E-02 -1.27004E+03 -1.27096E+03  9.11249E-01 -5.83925E+01  3.37369E-03 -7.51506E-02
   1.25594E+06  5.06032E-01  5.07092E-01  2.09442E-01 -1.59272E+03 -1.59397E+03  1.25418E+00 -6.74440E+01  3.37346E-03 -8.21589E-02
   1.58114E+06  4.32074E-01  4.33512E-01  3.32783E-01 -1.99748E+03 -1.99928E+03  1.80122E+00 -7.74941E+01  3.37307E-03 -9.37263E-02
   1.99054E+06  3.57715E-01  3.58079E-01  1.01776E-01 -2.50530E+03 -2.50776E+03  2.46032E+00 -8.83811E+01  3.37280E-03 -1.01692E-01
   2.50594E+06  2.85895E-01  2.84473E-01 -4.97446E-01 -3.14257E+03 -3.14564E+03  3.06066E+00 -9.98135E+01  3.37284E-03 -1.00487E-01
   3.15479E+06  2.19606E-01  2.16844E-01 -1.25804E+00 -3.94247E+03 -3.94590E+03  3.42678E+00 -1.11433E+02  3.37321E-03 -8.93679E-02
   3.97164E+06  1.61122E-01  1.58539E-01 -1.60266E+00 -4.94673E+03 -4.95017E+03  3.44082E+00 -1.22869E+02  3.37382E-03 -7.12784E-02
   5.00000E+06  1.12254E-01  1.11326E-01 -8.26763E-01 -6.20787E+03 -6.21097E+03  3.09676E+00 -1.33757E+02  3.37451E-03 -5.09569E-02
   6.29463E+06  7.40317E-02  7.53105E-02  1.72726E+00 -7.79198E+03 -7.79451E+03  2.52390E+00 -1.43749E+02  3.37512E-03 -3.29889E-02

=====   =====   Begin  Zc  fitting for mode  IMODE = 3    =====    =====

Units :  Freq in Hz;  R, L, G, and C per kilometer;  R in Ohms,  L in Millihenries,  G in mhos,  and  C in microfarads;
Zc  in Ohms  and  PHZC  in degrees.
     Freq        R          L         G          C          Zc        PHZC       Freq
  5.0000E+01 1.8491E-01 2.2494E+00 3.0000E-08 2.8614E-02 2.8506E+02-7.2363E+00 5.0000E+01
  6.2946E+01 1.6480E+00 1.0289E+00 3.0000E-08 1.3018E-02 5.7418E+02-3.7897E+01 6.2946E+01
  7.9245E+01 1.6209E+00 9.9538E-01 3.0000E-08 1.3187E-02 5.0809E+02-3.6369E+01 7.9245E+01
  9.9763E+01 1.5965E+00 9.6584E-01 3.0000E-08 1.3347E-02 4.5176E+02-3.4513E+01 9.9763E+01
  1.2559E+02 1.5777E+00 9.4291E-01 3.0000E-08 1.3469E-02 4.0512E+02-3.2295E+01 1.2559E+02
  1.5811E+02 1.5658E+00 9.2713E-01 3.0000E-08 1.3539E-02 3.6750E+02-2.9703E+01 1.5811E+02
  1.9905E+02 1.5596E+00 9.1765E-01 3.0000E-08 1.3555E-02 3.3797E+02-2.6775E+01 1.9905E+02
  2.5059E+02 1.5572E+00 9.1298E-01 3.0000E-08 1.3526E-02 3.1545E+02-2.3604E+01 2.5059E+02
  3.1548E+02 1.5549E+00 9.1103E-01 3.0000E-08 1.3471E-02 2.9873E+02-2.0332E+01 3.1548E+02
  3.9716E+02 1.5461E+00 9.0834E-01 3.0000E-08 1.3431E-02 2.8612E+02-1.7123E+01 3.9716E+02
  5.0000E+02 1.5193E+00 8.9825E-01 3.0000E-08 1.3492E-02 2.7498E+02-1.4128E+01 5.0000E+02
  6.2946E+02 1.4570E+00 8.6960E-01 3.0000E-08 1.3826E-02 2.6135E+02-1.1464E+01 6.2946E+02
  7.9245E+02 4.4690E-01 8.9084E-01 3.0000E-08 1.6878E-02 2.3032E+02-2.8665E+00 7.9245E+02
  9.9763E+02 5.0382E-01 8.5111E-01 3.0000E-08 1.7635E-02 2.2017E+02-2.6896E+00 9.9763E+02
  1.2559E+03 1.8883E+00 8.3429E-01 3.0000E-08 1.3817E-02 2.5063E+02-7.9940E+00 1.2559E+03
  1.5811E+03 1.9044E+00 8.3907E-01 3.0000E-08 1.3737E-02 2.5031E+02-6.4282E+00 1.5811E+03
  1.9905E+03 1.9209E+00 8.4275E-01 3.0000E-08 1.3675E-02 2.5029E+02-5.1592E+00 1.9905E+03
  2.5059E+03 1.9404E+00 8.4583E-01 3.0000E-08 1.3623E-02 2.5049E+02-4.1407E+00 2.5059E+03
  3.1548E+03 1.9665E+00 8.4885E-01 3.0000E-08 1.3571E-02 2.5094E+02-3.3298E+00 3.1548E+03
  3.9716E+03 2.0041E+00 8.5239E-01 3.0000E-08 1.3511E-02 2.5173E+02-2.6887E+00 3.9716E+03
  5.0000E+03 2.0602E+00 8.5707E-01 3.0000E-08 1.3432E-02 2.5297E+02-2.1856E+00 5.0000E+03
  6.2946E+03 2.1435E+00 8.6341E-01 3.0000E-08 1.3325E-02 2.5480E+02-1.7942E+00 6.2946E+03
  7.9245E+03 2.2646E+00 8.7156E-01 3.0000E-08 1.3190E-02 2.5723E+02-1.4923E+00 7.9245E+03
  9.9763E+03 2.4341E+00 8.8113E-01 3.0000E-08 1.3031E-02 2.6016E+02-1.2607E+00 9.9763E+03
  1.2559E+04 2.6607E+00 8.9137E-01 3.0000E-08 1.2862E-02 2.6335E+02-1.0823E+00 1.2559E+04
  1.5811E+04 2.9479E+00 9.0191E-01 3.0000E-08 1.2688E-02 2.6669E+02-9.4151E-01 1.5811E+04
  1.9905E+04 3.3100E+00 9.1289E-01 3.0000E-08 1.2509E-02 2.7020E+02-8.2974E-01 1.9905E+04
  2.5059E+04 3.7047E+00 9.2635E-01 3.0000E-08 1.2298E-02 2.7450E+02-7.2705E-01 2.5059E+04
  3.1548E+04 4.1536E+00 9.4475E-01 3.0000E-08 1.2032E-02 2.8025E+02-6.3494E-01 3.1548E+04
  3.9716E+04 4.6787E+00 9.7015E-01 3.0000E-08 1.1694E-02 2.8806E+02-5.5327E-01 3.9716E+04
  5.0000E+04 5.3094E+00 1.0062E+00 3.0000E-08 1.1255E-02 2.9902E+02-4.8090E-01 5.0000E+04
  6.2946E+04 6.0941E+00 1.0598E+00 3.0000E-08 1.0669E-02 3.1519E+02-4.1630E-01 6.2946E+04
  7.9245E+04 7.1275E+00 1.1456E+00 3.0000E-08 9.8559E-03 3.4094E+02-3.5779E-01 7.9245E+04
  9.9763E+04 8.6379E+00 1.3011E+00 3.0000E-08 8.6673E-03 3.8745E+02-3.0326E-01 9.9763E+04
  1.2559E+05 1.1272E+01 1.6418E+00 3.0000E-08 6.8616E-03 4.8917E+02-2.4908E-01 1.2559E+05
  1.5811E+05 1.0650E+01 1.5585E+00 3.0000E-08 7.2264E-03 4.6440E+02-1.9693E-01 1.5811E+05
  1.9905E+05 7.3749E+00 9.9591E-01 3.0000E-08 1.1308E-02 2.9677E+02-1.6956E-01 1.9905E+05
  2.5059E+05 6.5783E+00 7.8404E-01 3.0000E-08 1.4360E-02 2.3367E+02-1.5262E-01 2.5059E+05
  3.1548E+05 6.0276E+00 6.2077E-01 3.0000E-08 1.8131E-02 1.8504E+02-1.4031E-01 3.1548E+05
  3.9716E+05 6.9218E+00 6.0701E-01 3.0000E-08 1.8534E-02 1.8097E+02-1.3089E-01 3.9716E+05
  5.0000E+05 8.1488E+00 6.0172E-01 3.0000E-08 1.8689E-02 1.7944E+02-1.2348E-01 5.0000E+05
  6.2946E+05 9.7492E+00 6.0091E-01 3.0000E-08 1.8705E-02 1.7924E+02-1.1750E-01 6.2946E+05
  7.9245E+05 1.1787E+01 6.0250E-01 3.0000E-08 1.8647E-02 1.7975E+02-1.1256E-01 7.9245E+05
  9.9763E+05 1.4346E+01 6.0525E-01 3.0000E-08 1.8553E-02 1.8062E+02-1.0832E-01 9.9763E+05
  1.2559E+06 1.7527E+01 6.0843E-01 3.0000E-08 1.8447E-02 1.8161E+02-1.0457E-01 1.2559E+06
  1.5811E+06 2.1449E+01 6.1159E-01 3.0000E-08 1.8342E-02 1.8260E+02-1.0113E-01 1.5811E+06
  1.9905E+06 2.6251E+01 6.1444E-01 3.0000E-08 1.8248E-02 1.8350E+02-9.7856E-02 1.9905E+06
  2.5059E+06 3.2083E+01 6.1624E-01 3.0000E-08 1.8186E-02 1.8408E+02-9.4721E-02 2.5059E+06
  3.1548E+06 3.9695E+01 6.1748E-01 3.0000E-08 1.8141E-02 1.8449E+02-9.2904E-02 3.1548E+06
  3.9716E+06 4.9365E+01 6.1864E-01 3.0000E-08 1.8099E-02 1.8488E+02-9.1603E-02 3.9716E+06
  5.0000E+06 5.9813E+01 6.1999E-01 3.0000E-08 1.8051E-02 1.8533E+02-8.7971E-02 5.0000E+06
  6.2946E+06 7.1150E+01 6.2053E-01 3.0000E-08 1.8028E-02 1.8553E+02-8.3051E-02 6.2946E+06
  7.9245E+06 8.5321E+01 6.2039E-01 3.0000E-08 1.8025E-02 1.8552E+02-7.9128E-02 7.9245E+06
  9.9763E+06 1.0201E+02 6.2011E-01 3.0000E-08 1.8026E-02 1.8548E+02-7.5181E-02 9.9763E+06
  1.2559E+07 1.2181E+02 6.1979E-01 3.0000E-08 1.8028E-02 1.8542E+02-7.1344E-02 1.2559E+07
  1.5811E+07 1.4502E+02 6.1928E-01 3.0000E-08 1.8036E-02 1.8530E+02-6.7525E-02 1.5811E+07
  1.9905E+07 1.7206E+02 6.1833E-01 3.0000E-08 1.8058E-02 1.8504E+02-6.3738E-02 1.9905E+07
  2.5059E+07 2.0338E+02 6.1734E-01 3.0000E-08 1.8081E-02 1.8478E+02-5.9942E-02 2.5059E+07
  3.1548E+07 2.3948E+02 6.1633E-01 3.0000E-08 1.8106E-02 1.8450E+02-5.6157E-02 3.1548E+07
  3.9716E+07 2.8091E+02 6.1531E-01 3.0000E-08 1.8131E-02 1.8422E+02-5.2411E-02 3.9716E+07
  5.0000E+07 3.2830E+02 6.1428E-01 3.0000E-08 1.8157E-02 1.8394E+02-4.8735E-02 5.0000E+07
   IKNEE = 7   curve zones  XKNEE :      1.699     1.799     2.999     5.099     5.804     7.044     7.699
   ###  Begin allocation loop number  1
  ---  Least square average error  D1 = 1.81918387E+01 ;   check error  D2 =  1.45317054E+01
       Number of poles  NPOLE = 14     Number of zeros  NZERO = 14
       Error criterion used: least-square check error less than   0.300   percent.
   ###  Begin allocation loop number  2
  ---  Least square average error  D1 = 1.82353145E+01 ;   check error  D2 =  1.45835715E+01
       Number of poles  NPOLE = 17     Number of zeros  NZERO = 17
       Error criterion used: least-square check error less than   0.300   percent.
   ###  Begin allocation loop number  3
  ---  Least square average error  D1 = 1.82402064E+01 ;   check error  D2 =  1.45894054E+01
       Number of poles  NPOLE = 19     Number of zeros  NZERO = 19
       Error criterion used: least-square check error less than   0.300   percent.
   ###  Begin allocation loop number  4
  ---  Least square average error  D1 = 1.79246785E+01 ;   check error  D2 =  1.40660741E+01
       Number of poles  NPOLE = 23     Number of zeros  NZERO = 23
       Error criterion used: least-square check error less than   0.300   percent.
   ###  Begin allocation loop number  5
  ---  Least square average error  D1 = 1.73748744E+01 ;   check error  D2 =  1.30787877E+01
       Number of poles  NPOLE = 28     Number of zeros  NZERO = 28
       Error criterion used: least-square check error less than   0.300   percent.
   ###  Begin allocation loop number  6
  ---  Least square average error  D1 = 1.73855825E+01 ;   check error  D2 =  1.30672869E+01
       Number of poles  NPOLE = 30     Number of zeros  NZERO = 30
       Error criterion used: least-square check error less than   0.300   percent.
   ###  Begin allocation loop number  7
The number of poles  NPOLES = 41   in this loop exceeds the specified limit  NORMAX = 30
 --- The maximum tolerance criterion  EPSTOL = 1.69242672E-06   could not be met.
Curve type  IFTYPE = 1     Reference level  D1 = 1.83936014E+02     Number poles = 30     Number zeros = 30
Table of  Zc  vs.  ZCEQ  for mode  3   follows:
       Frequency             ZCMAG            ZCEQMAG           DELMAG             ZCPH            ZCEQPH            DELPH
       in Hertz             in Ohms           in Ohms         in percent         degrees          degrees           degrees
    5.000000000E+01   2.850565538E+02   4.165261699E+02   4.612053796E+01  -7.236276474E+00   9.169671638E+00   1.640594811E+01
    6.294627059E+01   5.741836010E+02   4.404150667E+02  -2.329717081E+01  -3.789749997E+01   4.925387102E+00   4.282288707E+01
    7.924465962E+01   5.080875488E+02   4.517834340E+02  -1.108157737E+01  -3.636855253E+01  -4.919306777E-01   3.587662185E+01
    9.976311575E+01   4.517568477E+02   4.466462350E+02  -1.131275090E+00  -3.451332069E+01  -6.221173664E+00   2.829214703E+01
    1.255943216E+02   4.051167055E+02   4.265647895E+02   5.294297609E+00  -3.229453512E+01  -1.137318933E+01   2.092134580E+01
    1.581138830E+02   3.675034626E+02   3.971080975E+02   8.055607072E+00  -2.970290364E+01  -1.531879208E+01   1.438411156E+01
    1.990535853E+02   3.379674655E+02   3.644647828E+02   7.840197642E+00  -2.677521199E+01  -1.779200576E+01   8.983206223E+00
    2.505936168E+02   3.154530873E+02   3.331066227E+02   5.596247470E+00  -2.360435057E+01  -1.882180948E+01   4.782541091E+00
    3.154786722E+02   2.987334729E+02   3.053664697E+02   2.220372789E+00  -2.033224207E+01  -1.858719885E+01   1.745043226E+00
    3.971641174E+02   2.861237238E+02   2.821411938E+02  -1.391890881E+00  -1.712307407E+01  -1.729478581E+01   1.717117405E-01
    5.000000000E+02   2.749773281E+02   2.637334700E+02  -4.089012781E+00  -1.412846868E+01  -1.513910960E+01   1.010640915E+00
    6.294627059E+02   2.613531038E+02   2.503041650E+02  -4.227590446E+00  -1.146360381E+01  -1.234304541E+01   8.794416017E-01
    7.924465962E+02   2.303212916E+02   2.418646011E+02   5.011829101E+00  -2.866461216E+00  -9.214180319E+00   6.347719103E+00
    9.976311575E+02   2.201739679E+02   2.380342961E+02   8.111916407E+00  -2.689637897E+00  -6.133867419E+00   3.444229523E+00
    1.255943216E+03   2.506339384E+02   2.378924222E+02  -5.083715443E+00  -7.994021160E+00  -3.454422172E+00   4.539598988E+00
    1.581138830E+03   2.503133462E+02   2.401279481E+02  -4.069059158E+00  -6.428211553E+00  -1.377439500E+00   5.050772053E+00
    1.990535853E+03   2.502860329E+02   2.434221503E+02  -2.742415331E+00  -5.159189215E+00   8.867448859E-02   5.247863704E+00
    2.505936168E+03   2.504888898E+02   2.468027239E+02  -1.471588589E+00  -4.140733429E+00   1.073572866E+00   5.214306295E+00
    3.154786722E+03   2.509433372E+02   2.497705505E+02  -4.673511899E-01  -3.329767960E+00   1.754320237E+00   5.084088197E+00
    3.971641174E+03   2.517300987E+02   2.522159882E+02   1.930200037E-01  -2.688662035E+00   2.290777764E+00   4.979439799E+00
    5.000000000E+03   2.529735449E+02   2.542644556E+02   5.102947246E-01  -2.185641501E+00   2.802115166E+00   4.987756667E+00
[...]
   3.97164E+03  9.99362E-01  9.99572E-01  2.10468E-02 -4.80371E+00 -4.80939E+00  5.68050E-03 -4.18265E-02  3.33048E-03 -1.19149E-01
   5.00000E+03  9.99291E-01  9.99466E-01  1.74977E-02 -6.04299E+00 -6.05157E+00  8.58021E-03 -4.95597E-02  3.32968E-03 -1.42956E-01
   6.29463E+03  9.99211E-01  9.99327E-01  1.16349E-02 -7.60260E+00 -7.61340E+00  1.08014E-02 -5.73176E-02  3.32968E-03 -1.42950E-01
   7.92447E+03  9.99121E-01  9.99160E-01  3.89759E-03 -9.56538E+00 -9.57702E+00  1.16399E-02 -6.44764E-02  3.33037E-03 -1.22364E-01
   9.97631E+03  9.99020E-01  9.98975E-01 -4.48413E-03 -1.20356E+01 -1.20462E+01  1.05217E-02 -7.05879E-02  3.33152E-03 -8.78599E-02
   1.25594E+04  9.98906E-01  9.98789E-01 -1.17392E-02 -1.51447E+01 -1.51521E+01  7.34088E-03 -7.57044E-02  3.33283E-03 -4.86913E-02
   1.58114E+04  9.98779E-01  9.98617E-01 -1.62330E-02 -1.90579E+01 -1.90605E+01  2.59168E-03 -8.05025E-02  3.33399E-03 -1.36548E-02
   1.99054E+04  9.98635E-01  9.98465E-01 -1.70919E-02 -2.39834E+01 -2.39805E+01  2.82480E-03 -8.60967E-02  3.33484E-03  1.18220E-02
   2.50594E+04  9.98474E-01  9.98330E-01 -1.43817E-02 -3.01830E+01 -3.01750E+01  7.94060E-03 -9.37075E-02  3.33533E-03  2.63971E-02
   3.15479E+04  9.98293E-01  9.98203E-01 -8.93369E-03 -3.79865E+01 -3.79745E+01  1.19861E-02 -1.04408E-01  3.33551E-03  3.16505E-02
   3.97164E+04  9.98089E-01  9.98068E-01 -2.04923E-03 -4.78092E+01 -4.77947E+01  1.45102E-02 -1.19012E-01  3.33546E-03  3.04353E-02
   5.00000E+04  9.97859E-01  9.97906E-01  4.72669E-03 -6.01736E+01 -6.01581E+01  1.54294E-02 -1.38041E-01  3.33531E-03  2.57070E-02
   6.29463E+04  9.97600E-01  9.97698E-01  9.81721E-03 -7.57376E+01 -7.57225E+01  1.50754E-02 -1.61689E-01  3.33511E-03  1.99513E-02
   7.92447E+04  9.97308E-01  9.97427E-01  1.19236E-02 -9.53295E+01 -9.53152E+01  1.42327E-02 -1.89805E-01  3.33495E-03  1.49621E-02
   9.97631E+04  9.96979E-01  9.97083E-01  1.04621E-02 -1.19992E+02 -1.19978E+02  1.40712E-02 -2.21987E-01  3.33484E-03  1.17499E-02
   1.25594E+05  9.96607E-01  9.96667E-01  5.93691E-03 -1.51037E+02 -1.51022E+02  1.58798E-02 -2.57870E-01  3.33480E-03  1.05329E-02
   1.58114E+05  9.96187E-01  9.96186E-01 -9.31927E-05 -1.90118E+02 -1.90098E+02  2.06527E-02 -2.97584E-01  3.33481E-03  1.08813E-02
   1.99054E+05  9.95711E-01  9.95655E-01 -5.61211E-03 -2.39315E+02 -2.39286E+02  2.87700E-02 -3.42107E-01  3.33485E-03  1.20405E-02
   2.50594E+05  9.95170E-01  9.95081E-01 -9.00293E-03 -3.01246E+02 -3.01206E+02  4.00189E-02 -3.93301E-01  3.33489E-03  1.33036E-02
   3.15479E+05  9.94556E-01  9.94461E-01 -9.60976E-03 -3.79209E+02 -3.79155E+02  5.39439E-02 -4.53622E-01  3.33492E-03  1.42445E-02
   3.97164E+05  9.93856E-01  9.93780E-01 -7.73562E-03 -4.77353E+02 -4.77282E+02  7.02614E-02 -5.25778E-01  3.33494E-03  1.47374E-02
   5.00000E+05  9.93057E-01  9.93014E-01 -4.31616E-03 -6.00903E+02 -6.00814E+02  8.91090E-02 -6.12572E-01  3.33494E-03  1.48465E-02
   6.29463E+05  9.92142E-01  9.92136E-01 -6.09379E-04 -7.56436E+02 -7.56325E+02  1.11150E-01 -7.16906E-01  3.33494E-03  1.47100E-02
   7.92447E+05  9.91093E-01  9.91113E-01  2.06257E-03 -9.52234E+02 -9.52096E+02  1.37637E-01 -8.41846E-01  3.33493E-03  1.44690E-02
   9.97631E+05  9.89885E-01  9.89911E-01  2.57050E-03 -1.19872E+03 -1.19855E+03  1.70418E-01 -9.90778E-01  3.33492E-03  1.42304E-02
   1.25594E+06  9.88494E-01  9.88495E-01  9.52117E-05 -1.50902E+03 -1.50880E+03  2.11862E-01 -1.16768E+00  3.33492E-03  1.40526E-02
   1.58114E+06  9.86888E-01  9.86828E-01 -6.07194E-03 -1.89964E+03 -1.89938E+03  2.64792E-01 -1.37743E+00  3.33491E-03  1.39511E-02
   1.99054E+06  9.85033E-01  9.84865E-01 -1.70632E-02 -2.39140E+03 -2.39107E+03  3.32608E-01 -1.62601E+00  3.33491E-03  1.39199E-02
   2.50594E+06  9.82887E-01  9.82546E-01 -3.47466E-02 -3.01047E+03 -3.01005E+03  4.19449E-01 -1.92032E+00  3.33491E-03  1.39438E-02
   3.15479E+06  9.80123E-01  9.79796E-01 -3.33945E-02 -3.78982E+03 -3.78928E+03  5.44960E-01 -2.26764E+00  3.33493E-03  1.43902E-02
   3.97164E+06  9.78982E-01  9.76543E-01 -2.49140E-01 -4.77093E+03 -4.77024E+03  6.85004E-01 -2.67471E+00  3.33493E-03  1.43680E-02
   5.00000E+06  9.71527E-01  9.72764E-01  1.27341E-01 -6.00605E+03 -6.00516E+03  8.93292E-01 -3.14801E+00  3.33495E-03  1.48832E-02
   6.29463E+06  9.68793E-01  9.68533E-01 -2.67899E-02 -7.56093E+03 -7.55978E+03  1.15228E+00 -3.69689E+00  3.33496E-03  1.52496E-02
   7.92447E+06  9.65208E-01  9.64032E-01 -1.21819E-01 -9.51838E+03 -9.51688E+03  1.49958E+00 -4.34006E+00  3.33498E-03  1.57642E-02
   9.97631E+06  9.60733E-01  9.59467E-01 -1.31819E-01 -1.19826E+04 -1.19807E+04  1.94106E+00 -5.11240E+00  3.33499E-03  1.62084E-02
   1.25594E+07  9.55516E-01  9.54917E-01 -6.26086E-02 -1.50849E+04 -1.50824E+04  2.47357E+00 -6.06737E+00  3.33500E-03  1.64069E-02
   1.58114E+07  9.49357E-01  9.50215E-01  9.03946E-02 -1.89904E+04 -1.89873E+04  3.08416E+00 -7.27387E+00  3.33499E-03  1.62495E-02
   1.99054E+07  9.42326E-01  9.44885E-01  2.71582E-01 -2.39070E+04 -2.39032E+04  3.77452E+00 -8.81143E+00  3.33498E-03  1.57967E-02
   2.50594E+07  9.34377E-01  9.38124E-01  4.01048E-01 -3.00966E+04 -3.00921E+04  4.55891E+00 -1.07671E+01  3.33495E-03  1.51553E-02
   3.15479E+07  9.25430E-01  9.28763E-01  3.60164E-01 -3.78888E+04 -3.78834E+04  5.46885E+00 -1.32339E+01  3.33493E-03  1.44411E-02
   3.97164E+07  9.15394E-01  9.15188E-01 -2.25313E-02 -4.76985E+04 -4.76920E+04  6.56496E+00 -1.63069E+01  3.33491E-03  1.37700E-02
   5.00000E+07  9.04172E-01  8.95283E-01 -9.83072E-01 -6.00481E+04 -6.00402E+04  7.95478E+00 -2.00738E+01  3.33489E-03  1.32535E-02

Request for flushing of punch buffer.             |$PUNCH

A listing of 80-column card images now being flushed from punch buffer follows.
===============================================================================
1234567890123456789012345678901234567890123456789012345678901234567890123456789
===============================================================================
C  <++++++>  Cards punched by support routine on  14-Nov-21  22:25:13  <++++++>
C     ***** UNTRANSPOSED JMARTI line segment ******
C JMARTI SETUP
C $ERASE
C BRANCH  IN___AOUT__AIN___BOUT__BIN___COUT__CIN___DOUT__DIN___EOUT__EIN___FOUT_
C CABLE CONSTANTS
C CABLE PARAMETERS
C     2    1    6         1    1              0    0    0
C     1    1    1    1    1    1
C    0.00463   0.01257   0.01257
C  7.1221E-8        1.        1.        1.
C    0.00463   0.01257   0.01257
C  7.1221E-8        1.        1.        1.
C    0.00463   0.01257   0.01257
C  7.1221E-8        1.        1.        1.
C     0.1245     0.127     0.227
C    2.84E-7      250.        1.        3.
C        0.0  0.004765  0.004765
C 2.46925E-7        1.        1.        1.
C        0.0  0.004765  0.004765
C 2.46925E-7        1.        1.        1.
C       13.5      -6.6      13.5       0.0      13.5       6.6        1.       1
C       17.6     -4.65      17.6      4.65
C            1.E3           1.E6              1.E3
C            1.E3            50.              1.E3
C            1.E3            50.    6   10    1.E3
C BLANK CARD ENDING FREQUENCY CARDS
C BLANK CARD ENDING CABLE CONSTANTS
C                4       1       1   3.E-8
C              0.3      30       0       1       0       1       0
-1IN___AOUT__A                1.  0.00              -2 6
      15       1.7617062237450401000E+02
   8.06077463208773430E+07  -8.11548550633302480E+07   6.52047098849138940E+05
  -6.00292103484320480E+02   2.55572944541691190E+02   9.19953952533411390E+03
   3.93393894349719050E+05   1.78935695787179570E+05   7.64228611509318460E+05
   8.66966604476207520E+05   5.32066328818643000E+06   1.63346608651761150E+07
   9.35740252534052280E+07   2.39414657411967250E+08   1.50930772858335900E+09
   3.84636391093980540E+02   3.85021027485074510E+02   4.11490400547619000E+02
   4.77824847624808910E+02   5.77925935331949630E+02   1.51796299818788820E+03
   4.16620295548543800E+04   5.10993697358163190E+04   3.49223969061154810E+05
   4.32131539775993730E+05   1.29159683652200760E+06   3.99396928829675820E+06
   1.17714720034726820E+07   3.16836390842083840E+07   1.08602811811932410E+08
      11       4.5504417424544117000E-06
   1.10908611292758080E+02   2.10974781333709590E+02   3.87466227740636210E+02
   1.17783773302020110E+03   1.27829068380362000E+04   1.15731493986197750E+05
   3.16118463019912560E+04   7.74062294403923210E+05   1.77727841247605610E+07
   4.11470642929271360E+09  -4.13341528914641520E+09
   2.12512470429957790E+04   4.16545464268459330E+04   3.57275473295674750E+04
   5.79860107213781300E+04   2.32211111350875170E+05   4.68458224587857200E+05
   5.22407132254320780E+05   1.35459567165000290E+06   4.09308713736991490E+06
   3.37527682161833720E+06   3.37865209843995330E+06
-2IN___BOUT__B                1.  0.00              -2 6
      23       1.9189310042551045000E+02
   1.70018830304066940E+10  -4.98884921630317610E+10   4.87900809123966520E+10
  -1.59034015145948520E+10  -3.31512877082316970E+10   1.16415124007916990E+11
  -2.13807305793702640E+11   1.30543527226106830E+11   6.36442647583883970E+02
   7.82331351053010590E+04   4.35246244210621810E+05   9.39869450138636010E+02
  -6.65031069465684940E+05  -1.46294485258197410E+06  -2.71697908833414600E+06
  -2.93063871892192590E+06  -1.99054028640053190E+06  -1.36602909173951830E+06
  -8.44852357988287460E+05  -8.61614642119465210E+06   1.24606397884535310E+08
   2.48216348776016860E+08   1.14012691722748570E+09
   3.13940893494343750E+02   3.14254834387838170E+02   3.14569089222225840E+02
   3.14883658311448020E+02   5.05792463534779700E+02   5.06298255998314460E+02
   5.06804554254312730E+02   5.06999127861290450E+02   7.26616860096576490E+02
   2.34951693790812210E+03   5.69127597009352670E+03   6.41762825966170840E+03
   4.01557678629656880E+04   2.37172611758284710E+05   3.89471303831147440E+05
   8.69201978809431200E+05   9.83222474498575670E+05   1.45867884891629750E+06
   1.93285680765495520E+06   3.27034995138202240E+06   1.49329919094952640E+07
   4.19828482653571670E+07   1.04929354349920790E+08
      23       3.3762299702627620000E-06
   6.99461671775397530E-01   7.70961999905071170E+01   9.64194577245304740E+01
   1.22804147332839990E+02   1.37526968151554880E+02   1.59422379899738590E+02
   1.64083904648061150E+02   4.07272227693544610E+02   5.09780892460391620E+03
   1.21817792178343280E+04   5.43127936094541800E+04   3.96432357009057300E+05
   4.30929098702208370E+05   5.16174513364523360E+05   6.63467366467274730E+05
  -1.07299844841860770E+07   1.64479311221203040E+07   3.88070520194552840E+08
  -3.93162872926325320E+08   8.98540254451202300E+07  -8.86038358703658880E+07
   8.69566963464971040E+07  -9.09122408694564250E+07
   5.51764574279357360E+02   5.90009865887466660E+04   7.60009142620741190E+04
   9.06333115316109910E+04   1.06464028708098050E+05   1.22064571757004650E+05
   1.37468251192388770E+05   2.62710453951642090E+05   4.18063664564691660E+05
   5.36251448962256200E+05   1.06493130559085310E+06   2.46674947789875600E+06
   3.26576589334838510E+06   4.14599118974978380E+06   5.08818628961667230E+06
   1.36077367444472110E+07   1.12099607540274710E+07   2.28817592443825600E+07
   2.29046410036269240E+07   6.98242559200395940E+07   6.98940801759595270E+07
   2.79633354827378060E+07   2.79912988182205300E+07
-3IN___COUT__C                1.  0.00              -2 6
      30       1.8393601435247223000E+02
   7.15198514313200160E+13  -2.89272893884580940E+14   4.38032476034545440E+14
  -2.92912708198702810E+14   7.26332748048729370E+13   8.60173117003005360E+02
   6.84224290292287910E+04  -5.91866988992748880E+03   2.94024054188376180E+04
   8.08994530216603160E+04  -1.38751674157593860E+04  -4.28191080248660580E+05
  -1.20790881565616630E+06   2.09554956479958960E+05   2.60281511842869780E+07
  -2.05996117426167270E+05  -2.26132426313787770E+13   6.42278063893750230E+13
  -4.16143241460919060E+13   1.63018992239398180E+06  -1.78808198741729350E+08
  -8.04051547153162660E+07  -4.95742636720793510E+06  -5.65812248271225490E+06
  -5.49391772401245890E+05  -5.55380308194426300E+07   2.07441325074533280E+08
   2.10025620386056830E+07   4.62559152431053670E+07   6.31277917053471510E+07
   3.92837374515238480E+02   3.93230211889753550E+02   3.93623442101643210E+02
   3.94017065543744820E+02   3.94418752760253710E+02   9.03826481502665730E+02
   2.48228228916079070E+03   1.11052794059067900E+03   1.60849991306922810E+03
   3.32785450236104540E+03   8.07836311113794450E+03   8.50701465880224350E+03
   2.09127436793612580E+05   2.90215129007121020E+05   4.40833336588656410E+05
   3.15397427870797690E+05   7.76230869205574620E+05   7.77664631849005000E+05
   7.78442296480853460E+05   1.31592006952307260E+06   6.58276626096390090E+06
   6.78129872477605290E+06   9.45076819331213830E+06   1.47764632493797860E+07
   1.78525347145450790E+07   1.81173456284110250E+07   7.74174899364642350E+07
   8.06623355473595860E+07   1.24538850113140230E+08   1.69811061111486170E+08
      11       3.3364196640643746000E-06
   2.96692654720618740E+00   3.51250966603246180E+02   1.65137164601328280E+03
   6.81484999762352980E+03   4.52080251000275310E+04   1.51740114859720390E+06
   5.58949097277786470E+05   2.91872192541525560E+06   2.85256694177600890E+07
  -3.31129512263361700E+07   1.22054914055791770E+08
   8.53129384059908490E+02   1.01058944080677310E+05   4.73063739857997690E+05
   1.89368176723354540E+06   3.17708022222745980E+06   1.93113677977844590E+07
   2.02029109004968740E+07   2.99637543980346280E+07   1.05597657250442130E+08
   2.43597832019796710E+09   2.38759903150758330E+08
-4IN___DOUT__D                1.  0.00              -2 6
      22       1.5851229284785961000E+02
   3.93659325208806790E+03  -1.22113686547669520E+03  -1.22548589364112450E+09
   1.22618368252834340E+09   3.60356227698273650E+04  -6.87354573014087950E+04
  -8.03830291363233980E+02  -8.49643163157735140E+05  -2.16366928944948130E+06
  -4.95553220186204560E+06  -7.56925245121782650E+06  -9.42336605417802930E+06
   4.33155336326521280E+08  -2.02941148481337000E+06   2.06320619729328460E+10
  -2.00457449898149990E+10  -4.80841598897295670E+07  -3.86809590246172100E+07
   4.89237457283298670E+07   1.15833094786410240E+08   2.66157370301295340E+08
   8.20109311970261690E+08
   4.74925151659664890E+02   2.58801969277391620E+03   4.14761218828591340E+03
   4.14889167890683070E+03   8.03526734881316130E+03   8.27484236155977120E+03
   8.78104217510728450E+03   5.37477923729243190E+04   4.54546058553026120E+05
   7.50089786158675560E+05   9.54066555407505480E+05   1.21679594433756590E+06
   2.15060033522947230E+06   1.54418581220846810E+06   3.31968164263123460E+06
   3.13492869300483680E+06   7.40966470497713050E+06   7.17589379095521380E+06
   1.03160903865294680E+07   1.51492672807712700E+07   4.30948014759214890E+07
   1.26438360879066840E+08
      17       3.3341793874205113000E-06
   6.72435354239956330E+00   1.27421995412410140E+02   4.78476455152843130E+02
   8.29953446011197910E+02   2.07349410403431330E+03   3.04410076088379450E+03
   4.11140797396146080E+03   4.93699542949366150E+03   5.98409827484953440E+03
   4.09302153403719880E+03   4.74618253904963240E+03   5.60870057830762930E+03
   2.20628345468549840E+05   4.89977466968658610E+05   3.63149528816851790E+06
   1.27051573163048760E+07   5.23603333201130270E+08
   3.12469668241501490E+03   5.92341257936404510E+04   2.23275805949085860E+05
   3.84599614916660470E+05   9.59435613481462820E+05   1.39845561422578180E+06
   1.83100816641049900E+06   2.22064170152548370E+06   2.75425947222849590E+06
   1.94323823160734770E+06   2.34774973759236650E+06   2.84918853820759340E+06
   2.54237435920477250E+07   1.40036602640652880E+07   5.32786958358760480E+07
   1.69991167878668250E+08   6.64852780507249590E+08
-5IN___EOUT__E                1.  0.00              -2 6
      12       1.6412053638485207000E+02
   1.26462095049081080E+05  -9.53817129304577250E+04  -3.07204536328446920E+04
  -1.56315009241017600E+04  -1.22266546394570400E+06   5.06702568454828950E+06
  -1.84563831187112930E+05  -4.70525467112640990E+11   4.70703501892984560E+11
   6.67758277483634110E+08  -1.54125557798125090E+11   1.53765714131285280E+11
   2.25744743088124730E+03   4.29169040075261000E+03   4.43566574583964120E+03
   9.07057515196902750E+03   2.95701726039834260E+05   5.36309682370454540E+05
   5.00172641916784110E+05   9.46213990627518620E+05   9.46565069727028250E+05
   7.63243736818391920E+06   3.15952797518853990E+07   3.16018184327877760E+07
       7       3.3352727113382523000E-06
   6.55311965207165210E+03   6.00811234970870650E+03   1.87801269017897870E+04
   1.64492967904999180E+05   3.84157826268253380E+05   2.37718478748476640E+06
   4.75786322607310710E+08
   9.05683590675123150E+05   7.62050809177428130E+05   2.51279519187034990E+06
   2.16763716277511940E+07   1.24890661656764990E+07   4.07665493576801870E+07
   5.40346494164613490E+08
-6IN___FOUT__F                1.  0.00              -2 6
      16       1.8854965964658541000E+02
   9.58078066068198680E+03  -4.78203952379875180E+07   4.78122722083273010E+07
   2.18277667019306620E+02   3.98570979229830390E+03   7.39213662788606960E+03
   1.02688848762426280E+04   1.45401118107147720E+04   6.37036356986479440E+04
   3.15160721516590040E+05   4.63141258146044270E+05   1.06045109928356430E+07
   1.25566766334175320E+08  -3.32804811734750290E+10   3.36478795829899100E+10
   9.85325801733962770E+08
   6.51761157171109180E+02   3.91749947400317430E+03   3.92926707807223510E+03
   5.39296616561936840E+03   6.72406082783605870E+03   9.78663712738498180E+03
   1.34994442435651640E+04   1.86091717941357090E+04   3.98747063306158600E+04
   9.90860125914254600E+04   1.52597618347290900E+05   8.77603518954172260E+05
   5.90278998500278030E+06   1.86947185879549980E+07   1.87500913307703170E+07
   7.73585200621006790E+07
      15       3.3344496303766019000E-06
   9.54067483651152200E+01   1.20015653283221010E+03   1.75335060908329410E+03
   3.94166492606642990E+03   7.29335863076743410E+03   1.09917127826211450E+04
   1.36387511196828110E+04   1.83876861879016760E+04   2.12239970923274410E+04
   2.48806614450557830E+04   2.62948103287172600E+04   4.96094994060186290E+04
   4.32295784626548410E+05   1.00795087941645590E+06   8.28785286943708420E+08
   6.07666982487518690E+04   7.61171107011058480E+05   1.12508103929884430E+06
   2.49128888743934590E+06   4.68921496186567560E+06   6.84021948342131640E+06
   8.67470329514601270E+06   1.13192516409448740E+07   1.35371070168823710E+07
   1.57255185698470040E+07   1.81083628239297760E+07   2.74011071741898130E+07
   4.38564256748576160E+07   4.59111384991654010E+07   8.73388799865157130E+08
  0.03646119  0.31082848 -0.35740088 -0.31407817  0.29301860 -0.34828598
 -0.01933752  0.00068218 -0.04232240  0.13206791  0.03652138 -0.01066664
  0.04475487  0.23875625  0.01716002 -0.38268117 -0.11923205  0.60437399
 -0.01649818  0.01219630  0.01313678 -0.07698258  0.09818113 -0.02277942
  0.05898351  0.20260539  0.38309417 -0.21044127 -0.40453957 -0.36984991
 -0.01714400  0.01352252  0.05114774 -0.11626875  0.13302464 -0.02027049
  0.95184514 -0.29230705 -0.08210051  0.01438013  0.01968879  0.00493285
  0.02108933  0.09802815  0.00882546  0.00270823 -0.02055928  0.00159912
  0.02372713  0.18316222 -0.19526423  0.65028137 -0.33181913  0.04766531
 -0.01202046 -0.00591001  0.04325459 -0.11622285 -0.21566503  0.02485774
  0.03204110  0.14404077  0.27297690  0.31899615  0.55902047  0.04903582
 -0.01166597  0.00058908 -0.07430594  0.19535387 -0.04353318  0.02709363
=========<  End of LUNIT7 punched cards as flushed by  $PUNCH  request  >=======

Blank card ending  "JMARTI SETUP"  data.          |BLANK CARD ENDING JMARTI SETUP
Timing figures characterizing central processor (CP) solution speed.  ----------------------------   CP sec  Wait sec  Real sec
                                                                                          Totals      1.578     0.000     1.578

