   ---   33   cards of disk file read into card cache cells  1   onward.
Alternative Transients Program (ATP),  GNU Linux or DOS.  All rights reserved by Can/Am user group of Portland, Oregon, USA.
 Date (dd-mth-yy) and time of day (hh.mm.ss) = 17-Nov-21  09:39:26   Name of disk plot file is  pipnd.pl4
Consult the 860-page ATP Rule Book of the Can/Am EMTP User Group in Portland,  Oregon, USA.  Source code date is 18 November 2012.
Total size of LABCOM tables = 460023529 INTEGER words.  31 VARDIM  List Sizes follow:  65002  150K  200K  2K  5000K  6K  60K
  500K  10K  16K  3K  12K  300K  2K  400K  3200  360  1016 59999K  400K  12K  60K  2000K  1K  120K  2000K  80K39999K  1200  39  800
--------------------------------------------------+--------------------------------------------------------------------------------
Descriptive interpretation of input data cards.   |  Input data card images are shown below, all 80 columns, character by character
                                                  0         1         2         3         4         5         6         7         8
                                                  012345678901234567890123456789012345678901234567890123456789012345678901234567890
--------------------------------------------------+--------------------------------------------------------------------------------
Comment card.   NUMDCD = 1.                       |C data:PIPND.DAT
Marker card preceding new EMTP data case.         |BEGIN NEW DATA CASE
Request for Taku Noda`s ARMA fitter.  NODAPR = 0  |NODA SETUP
Output file name is on 1st Noda comment line.     |TEMP.AFT
Input data line to be passed to Noda's fitter.    |HOMOGENEOUS LINE
Input data line to be passed to Noda's fitter.    |   -1.
Input data line to be passed to Noda's fitter.    |    4.    16.
Input data line to be passed to Noda's fitter.    |    1.    12.
Input data line to be passed to Noda's fitter.    |    3.    0.5     1.      3
Input data line to be passed to Noda's fitter.    |NO SYMMETRY
End data for fitter.  Next, CABLE/LINE CONSTANTS  |NODA SETUP ENDS
Akihiro Ametani`s old code.  Limits =  173  346   |CABLE CONSTANTS
Prof. Akihiro Ametani`s 1994 code.   Order = 248  |CABLE PARAMETERS
Misc.   2   1   6   0   1   1   0   0   0   0   0 |    2    1    6         1    1              0    0    0
Cable conductor numbers.  1 1 1 1 1 1             |    1    1    1    1    1    1
Radii.    .00   .01   .01                         |   0.00463   0.01257   0.01257
Physical constants for conductors & insulators.   | 7.1221E-8        1.        1.        1.
Radii.    .00   .01   .01                         |   0.00463   0.01257   0.01257
Physical constants for conductors & insulators.   | 7.1221E-8        1.        1.        1.
Radii.    .00   .01   .01                         |   0.00463   0.01257   0.01257
Physical constants for conductors & insulators.   | 7.1221E-8        1.        1.        1.
Radii.    .12   .13   .23                         |    0.1245     0.127     0.227
Physical constants for conductors & insulators.   |   2.84E-7      250.        1.        3.
Radii.    .00   .00   .00                         |       0.0  0.004765  0.004765
Physical constants for conductors & insulators.   |2.46925E-7        1.        1.        1.
Radii.    .00   .00   .00                         |       0.0  0.004765  0.004765
Physical constants for conductors & insulators.   |2.46925E-7        1.        1.        1.
(Y,X)  1.350E+01 -6.600E+00  1.350E+01  0.000E+00 |      13.5      -6.6      13.5       0.0      13.5       6.6        1.       10.
(Y,X)  1.760E+01 -4.650E+00  1.760E+01  4.650E+00 |      17.6     -4.65      17.6      4.65
Frequency card 1.000E+03 5.000E+01  6 10 1.00E+03 |           1.E3            50.    6   10    1.E3
         6 -phase SC cable with 6  conductors.  0  grounded.  Total # of conductors = 6
           Overhead cable
           Cable constants
           Phase 1  Boundary radii ;
            1  4.63000E-03  2  1.25700E-02  3  1.26700E-02
                   Resistivity(Ohm-m): Core 7.12210000E-08, Sheath 1.00000000E-08, Armor 1.00000000E-08
                   Relative permeability;  1.00000000E+00, 1.00000000E+00, 1.00000000E+00
                   Insulator:  1; (Relative) Permeability  1.0   Permittivity  1.00   Velocity(m/s) 2.99793E+08
                   DC resistance(Ohm/m),      1.66000E-04
           Phase 2  Boundary radii ;
            1  4.63000E-03  2  1.25700E-02  3  1.26700E-02
                   Resistivity(Ohm-m): Core 7.12210000E-08, Sheath 1.00000000E-08, Armor 1.00000000E-08
                   Relative permeability;  1.00000000E+00, 1.00000000E+00, 1.00000000E+00
                   Insulator:  1; (Relative) Permeability  1.0   Permittivity  1.00   Velocity(m/s) 2.99793E+08
                   DC resistance(Ohm/m),      1.66000E-04
           Phase 3  Boundary radii ;
            1  4.63000E-03  2  1.25700E-02  3  1.26700E-02
                   Resistivity(Ohm-m): Core 7.12210000E-08, Sheath 1.00000000E-08, Armor 1.00000000E-08
                   Relative permeability;  1.00000000E+00, 1.00000000E+00, 1.00000000E+00
                   Insulator:  1; (Relative) Permeability  1.0   Permittivity  1.00   Velocity(m/s) 2.99793E+08
                   DC resistance(Ohm/m),      1.66000E-04
           Phase 4  Boundary radii ;
            1  1.24500E-01  2  1.27000E-01  3  2.27000E-01
                   Resistivity(Ohm-m): Core 2.84000000E-07, Sheath 1.00000000E-08, Armor 1.00000000E-08
                   Relative permeability;  2.50000000E+02, 1.00000000E+00, 1.00000000E+00
                   Insulator:  1; (Relative) Permeability  1.0   Permittivity  3.00   Velocity(m/s) 1.73085E+08
                   DC resistance(Ohm/m),      1.43777E-04
           Phase 5  Boundary radii ;
            1  0.00000E+00  2  4.76500E-03  3  4.86500E-03
                   Resistivity(Ohm-m): Core 2.46925000E-07, Sheath 1.00000000E-08, Armor 1.00000000E-08
                   Relative permeability;  1.00000000E+00, 1.00000000E+00, 1.00000000E+00
                   Insulator:  1; (Relative) Permeability  1.0   Permittivity  1.00   Velocity(m/s) 2.99793E+08
                   DC resistance(Ohm/m),      3.46170E-03
           Phase 6  Boundary radii ;
            1  0.00000E+00  2  4.76500E-03  3  4.86500E-03
                   Resistivity(Ohm-m): Core 2.46925000E-07, Sheath 1.00000000E-08, Armor 1.00000000E-08
                   Relative permeability;  1.00000000E+00, 1.00000000E+00, 1.00000000E+00
                   Insulator:  1; (Relative) Permeability  1.0   Permittivity  1.00   Velocity(m/s) 2.99793E+08
                   DC resistance(Ohm/m),      3.46170E-03
           Distance from Earth surface ;      1  13.5000    2  13.5000    3  13.5000    4   1.0000    5  17.6000    6  17.6000
           Distance between phases     :        -6.6000         .0000        6.6000       10.0000       -4.6500        4.6500
           Earth ; resistivity 1.00000000E+03
           Frequency 5.00000000E+01  Hz


             Earth impedance [Ze] in Ohm/m
  4.88579E-05  4.88573E-05  4.88557E-05  4.90783E-05  4.87851E-05  4.87837E-05
  2.95343E-04  2.93520E-04  2.88610E-04  3.07862E-04  2.86413E-04  2.82673E-04  Core 1
 
  4.88573E-05  4.88579E-05  4.88573E-05  4.90807E-05  4.87849E-05  4.87849E-05
  2.93520E-04  2.95343E-04  2.93520E-04  3.21950E-04  2.85841E-04  2.85841E-04  Core 2
 
  4.88557E-05  4.88573E-05  4.88579E-05  4.90820E-05  4.87837E-05  4.87851E-05
  2.88610E-04  2.93520E-04  2.95343E-04  3.32492E-04  2.82673E-04  2.86413E-04  Core 3
 
  4.90783E-05  4.90807E-05  4.90820E-05  4.93109E-05  4.90053E-05  4.90077E-05
  3.07862E-04  3.21950E-04  3.32492E-04  4.58411E-04  3.03441E-04  3.16106E-04  Core 4
 
  4.87851E-05  4.87849E-05  4.87837E-05  4.90053E-05  4.87129E-05  4.87119E-05
  2.86413E-04  2.85841E-04  2.82673E-04  3.03441E-04  2.78831E-04  2.76711E-04  Core 5
 
  4.87837E-05  4.87849E-05  4.87851E-05  4.90077E-05  4.87119E-05  4.87129E-05
  2.82673E-04  2.85841E-04  2.86413E-04  3.16106E-04  2.76711E-04  2.78831E-04  Core 6


             Conductor internal impedance [Zi] in Ohm/m
  1.66261E-04  0.00000E+00  0.00000E+00  0.00000E+00  0.00000E+00  0.00000E+00
  1.28127E-05  0.00000E+00  0.00000E+00  0.00000E+00  0.00000E+00  0.00000E+00  Core 1
 
  0.00000E+00  1.66261E-04  0.00000E+00  0.00000E+00  0.00000E+00  0.00000E+00
  0.00000E+00  1.28127E-05  0.00000E+00  0.00000E+00  0.00000E+00  0.00000E+00  Core 2
 
  0.00000E+00  0.00000E+00  1.66261E-04  0.00000E+00  0.00000E+00  0.00000E+00
  0.00000E+00  0.00000E+00  1.28127E-05  0.00000E+00  0.00000E+00  0.00000E+00  Core 3
 
  0.00000E+00  0.00000E+00  0.00000E+00  1.58061E-04  0.00000E+00  0.00000E+00
  0.00000E+00  0.00000E+00  0.00000E+00  1.36610E-04  0.00000E+00  0.00000E+00  Core 4
 
  0.00000E+00  0.00000E+00  0.00000E+00  0.00000E+00  3.46172E-03  0.00000E+00
  0.00000E+00  0.00000E+00  0.00000E+00  0.00000E+00  1.70129E-05  0.00000E+00  Core 5
 
  0.00000E+00  0.00000E+00  0.00000E+00  0.00000E+00  0.00000E+00  3.46172E-03
  0.00000E+00  0.00000E+00  0.00000E+00  0.00000E+00  0.00000E+00  1.70129E-05  Core 6
           Eigenvector rotation has been made.

            Total impedance [Zt] in Ohm/m
  2.15119E-04  4.88573E-05  4.88557E-05  4.90783E-05  4.87851E-05  4.87837E-05
  7.89721E-04  3.83858E-04  3.40307E-04  3.11564E-04  4.07441E-04  3.46508E-04  Core 1
 
  4.88573E-05  2.15119E-04  4.88573E-05  4.90807E-05  4.87849E-05  4.87849E-05
  3.83858E-04  7.89721E-04  3.83858E-04  3.27958E-04  3.87868E-04  3.87868E-04  Core 2
 
  4.88557E-05  4.88573E-05  2.15119E-04  4.90820E-05  4.87837E-05  4.87851E-05
  3.40307E-04  3.83858E-04  7.89721E-04  3.41256E-04  3.46508E-04  4.07441E-04  Core 3
 
  4.90783E-05  4.90807E-05  4.90820E-05  2.07372E-04  4.90053E-05  4.90077E-05
  3.11564E-04  3.27958E-04  3.41256E-04  7.31740E-04  3.07657E-04  3.22646E-04  Core 4
 
  4.87851E-05  4.87849E-05  4.87837E-05  4.90053E-05  3.51044E-03  4.87119E-05
  4.07441E-04  3.87868E-04  3.46508E-04  3.07657E-04  8.54213E-04  3.62462E-04  Core 5
 
  4.87837E-05  4.87849E-05  4.87851E-05  4.90077E-05  4.87119E-05  3.51044E-03
  3.46508E-04  3.87868E-04  4.07441E-04  3.22646E-04  3.62462E-04  8.54213E-04  Core 6

            Total admittance [Yt] in mho/m
  0.00000E+00  0.00000E+00  0.00000E+00  0.00000E+00  0.00000E+00  0.00000E+00
  2.47951E-09 -3.21255E-10 -1.13448E-10 -2.36550E-11 -4.44381E-10 -1.31349E-10  Core 1
 
  0.00000E+00  0.00000E+00  0.00000E+00  0.00000E+00  0.00000E+00  0.00000E+00
 -3.21255E-10  2.52908E-09 -3.20656E-10 -5.29769E-11 -3.07514E-10 -3.07327E-10  Core 2
 
  0.00000E+00  0.00000E+00  0.00000E+00  0.00000E+00  0.00000E+00  0.00000E+00
 -1.13448E-10 -3.20656E-10  2.48099E-09 -1.07087E-10 -1.31191E-10 -4.43760E-10  Core 3
 
  0.00000E+00  0.00000E+00  0.00000E+00  0.00000E+00  0.00000E+00  0.00000E+00
 -2.36550E-11 -5.29769E-11 -1.07087E-10  7.38761E-09 -2.13789E-11 -4.75424E-11  Core 4
 
  0.00000E+00  0.00000E+00  0.00000E+00  0.00000E+00  0.00000E+00  0.00000E+00
 -4.44381E-10 -3.07514E-10 -1.31191E-10 -2.13789E-11  2.15934E-09 -1.95481E-10  Core 5
 
  0.00000E+00  0.00000E+00  0.00000E+00  0.00000E+00  0.00000E+00  0.00000E+00
 -1.31349E-10 -3.07327E-10 -4.43760E-10 -4.75424E-11 -1.95481E-10  2.15958E-09  Core 6

 Characteristic impedance matrix [Zc] in phase variables, in Ohms:
  568.3389  179.4334   140.267  83.92557  189.2105  135.2437
  -84.0309  -8.31553  -8.20261  -3.15873  -3.72238  .9663965
 
  179.4334  566.7178  177.8474  90.36231  171.2531   171.158
  -8.31553   -85.416  -8.88309  -2.87639  -2.00369  -2.49968
 
   140.267  177.8474  565.2075  96.11407  134.4408   188.225
  -8.20261  -8.88309  -85.1815  -2.26549  .8569531  -4.81659
 
  83.92557  90.36231  96.11407  310.8576   73.0491  78.48352
  -3.15873  -2.87639  -2.26549   -45.442  5.070964   5.43742
 
  189.2105  171.2531  134.4408   73.0491  1075.459  149.2191
  -3.72238  -2.00369  .8569531  5.070964  -822.977  -23.2543
 
  135.2437   171.158   188.225  78.48352  149.2191   1075.49
  .9663965  -2.49968  -4.81659   5.43742  -23.2543  -823.681

Modal transformation matrices follow.   These are complex, with the real part displayed above the imaginary part.
The current transformation matrix [Ti] follows.  The transpose of this is the inverse of the voltage transformation matrix.
By definition, [Ti] gives the mapping from modal to phase variables: i-phase = [Ti] * i-mode
  .0700544  -.161968  .1044599  .3261379  -.335988  -.505577
  -.164E-3   .029117  .0210215  -.371E-3  -.007639   .004379
 
  -.531E-5  -.170866  .0936227  .2676039  .6892525   .027902
  .7327E-4  .0245531  .0232403  .0172834  -.010845  .0121264
 
  -.070024  -.161593  .1038776  .2698415  -.354173  .5356341
  .1605E-3  .0260074  .0239213  -.023274  -.016173  .0027985
 
  -.006406  -.117164  .8058435  -.523262   -.00278  -.050718
  .0011547  .1181779  -.009832  -.041275  .0187692  -.020944
 
  -.499583  .4946824  .0289104  .0014228  -.244E-3  -.003262
    -.0015  .0031568  -.037442  -.014031  .7529E-5  .1459E-3
 
  .5001796  .4939284  .0295546   .718E-3  -.318E-3  .0036789
  -.001495  .0067595  -.037346  -.012834  -.314E-4  -.104E-3

 Voltage transformation matrix [Tv].  This gives the mapping from modal to phase variables: v-phase = [Tv] * v-mode
  .0068315  -.040143    .59392  .9999173  -.437399  -.912362
  -.001445  .0694093  .0533555  -.012862  -.020115   .014013
 
  .9718E-4  -.042114   .611981  .9291262  .9996374  .0678485
  -.001131  .0682598      .062  .0165608  -.026928  .0271868
 
  -.006634  -.041891  .6255684  .8609095  -.466458  .9999438
   -.82E-3  .0674433  .0632091   -.06449  -.033377  .0105978
 
  -.614E-3  -.055859  .9999306  -.375509  -.002313  -.019411
  .6739E-3  .0667784  -.011778  -.032998  .0094801  -.012819
 
  -.998615  .9992475  .4169791  .4268303  .0254646  -.110385
  -.004141  .0387881  -.145361  -.045932   -.01105  .0082351
 
  .9999918  .9970078  .4345386  .4021971  .0214591  .1571989
   -.00404  .0454316  -.143816  -.050262  -.012765   .007137

             Modal components
  Mode  Attenuation  Velocity      Impedance (Ohm/m)          Admittance (S/m)    Charact. imp. (Ohm)     Charact. Admit. (S)
  No.       (db/km) (m/mic.s)       Real      Imag.          Real        Imag.       Real      Imag.          Real        Imag.
    1  1.63656E-02    145.09  1.73165E-03  2.41591E-04  0.00000E+00  4.71194E-09    459.529  -399.868  1.23842E-03  1.07763E-03
    2  1.44678E-02    154.70  1.67305E-03  3.33735E-04  0.00000E+00  4.04359E-09    502.215  -411.929  1.19035E-03  9.76355E-04
    3  2.84044E-03    123.61  1.84913E-04  7.06667E-04  0.00000E+00  8.98942E-09    282.727   -36.378  3.47938E-03  4.47687E-04
    4  1.74846E-03    243.08  9.17530E-05  2.87403E-04  0.00000E+00  5.67101E-09    227.902   -35.496  4.28393E-03  6.67231E-04
    5  1.92373E-03    288.72  1.18478E-04  2.78979E-04  0.00000E+00  4.06811E-09    267.471   -54.442  3.58998E-03  7.30721E-04
    6  1.69911E-03    288.95  9.07955E-05  2.44155E-04  0.00000E+00  4.68492E-09    232.075   -41.755  4.17385E-03  7.50955E-04


             Earth impedance [Ze] in Ohm/m
  6.14348E-05  6.14340E-05  6.14315E-05  6.17445E-05  6.13325E-05  6.13303E-05
  3.62784E-04  3.60489E-04  3.54309E-04  3.78511E-04  3.51554E-04  3.46846E-04  Core 1
 
  6.14340E-05  6.14348E-05  6.14340E-05  6.17483E-05  6.13322E-05  6.13322E-05
  3.60489E-04  3.62784E-04  3.60489E-04  3.96246E-04  3.50834E-04  3.50834E-04  Core 2
 
  6.14315E-05  6.14340E-05  6.14348E-05  6.17502E-05  6.13303E-05  6.13325E-05
  3.54309E-04  3.60489E-04  3.62784E-04  4.09517E-04  3.46846E-04  3.51554E-04  Core 3
 
  6.17445E-05  6.17483E-05  6.17502E-05  6.20731E-05  6.16418E-05  6.16456E-05
  3.78511E-04  3.96246E-04  4.09517E-04  5.68004E-04  3.72956E-04  3.88900E-04  Core 4
 
  6.13325E-05  6.13322E-05  6.13303E-05  6.16418E-05  6.12310E-05  6.12295E-05
  3.51554E-04  3.50834E-04  3.46846E-04  3.72956E-04  3.42020E-04  3.39351E-04  Core 5
 
  6.13303E-05  6.13322E-05  6.13325E-05  6.16456E-05  6.12295E-05  6.12310E-05
  3.46846E-04  3.50834E-04  3.51554E-04  3.88900E-04  3.39351E-04  3.42020E-04  Core 6


             Conductor internal impedance [Zi] in Ohm/m
  1.66414E-04  0.00000E+00  0.00000E+00  0.00000E+00  0.00000E+00  0.00000E+00
  1.61243E-05  0.00000E+00  0.00000E+00  0.00000E+00  0.00000E+00  0.00000E+00  Core 1
 
  0.00000E+00  1.66414E-04  0.00000E+00  0.00000E+00  0.00000E+00  0.00000E+00
  0.00000E+00  1.61243E-05  0.00000E+00  0.00000E+00  0.00000E+00  0.00000E+00  Core 2
 
  0.00000E+00  0.00000E+00  1.66414E-04  0.00000E+00  0.00000E+00  0.00000E+00
  0.00000E+00  0.00000E+00  1.61243E-05  0.00000E+00  0.00000E+00  0.00000E+00  Core 3
 
  0.00000E+00  0.00000E+00  0.00000E+00  1.65865E-04  0.00000E+00  0.00000E+00
  0.00000E+00  0.00000E+00  0.00000E+00  1.69964E-04  0.00000E+00  0.00000E+00  Core 4
 
  0.00000E+00  0.00000E+00  0.00000E+00  0.00000E+00  3.46174E-03  0.00000E+00
  0.00000E+00  0.00000E+00  0.00000E+00  0.00000E+00  2.14179E-05  0.00000E+00  Core 5
 
  0.00000E+00  0.00000E+00  0.00000E+00  0.00000E+00  0.00000E+00  3.46174E-03
  0.00000E+00  0.00000E+00  0.00000E+00  0.00000E+00  0.00000E+00  2.14179E-05  Core 6
           Eigenvector rotation has been made.


             Earth impedance [Ze] in Ohm/m
  7.72384E-05  7.72371E-05  7.72334E-05  7.76734E-05  7.70947E-05  7.70912E-05
  4.45362E-04  4.42472E-04  4.34692E-04  4.65110E-04  4.31239E-04  4.25313E-04  Core 1
 
  7.72371E-05  7.72384E-05  7.72371E-05  7.76791E-05  7.70942E-05  7.70942E-05
  4.42472E-04  4.45362E-04  4.42472E-04  4.87438E-04  4.30334E-04  4.30334E-04  Core 2
 
  7.72334E-05  7.72371E-05  7.72384E-05  7.76821E-05  7.70912E-05  7.70947E-05
  4.34692E-04  4.42472E-04  4.45362E-04  5.04145E-04  4.25313E-04  4.31239E-04  Core 3
 
  7.76734E-05  7.76791E-05  7.76821E-05  7.81373E-05  7.75290E-05  7.75348E-05
  4.65110E-04  4.87438E-04  5.04145E-04  7.03618E-04  4.58133E-04  4.78206E-04  Core 4
 
  7.70947E-05  7.70942E-05  7.70912E-05  7.75290E-05  7.69521E-05  7.69498E-05
  4.31239E-04  4.30334E-04  4.25313E-04  4.58133E-04  4.19253E-04  4.15894E-04  Core 5
 
  7.70912E-05  7.70942E-05  7.70947E-05  7.75348E-05  7.69498E-05  7.69521E-05
  4.25313E-04  4.30334E-04  4.31239E-04  4.78206E-04  4.15894E-04  4.19253E-04  Core 6


             Conductor internal impedance [Zi] in Ohm/m
  1.66655E-04  0.00000E+00  0.00000E+00  0.00000E+00  0.00000E+00  0.00000E+00
  2.02875E-05  0.00000E+00  0.00000E+00  0.00000E+00  0.00000E+00  0.00000E+00  Core 1
 
  0.00000E+00  1.66655E-04  0.00000E+00  0.00000E+00  0.00000E+00  0.00000E+00
  0.00000E+00  2.02875E-05  0.00000E+00  0.00000E+00  0.00000E+00  0.00000E+00  Core 2
 
  0.00000E+00  0.00000E+00  1.66655E-04  0.00000E+00  0.00000E+00  0.00000E+00
  0.00000E+00  0.00000E+00  2.02875E-05  0.00000E+00  0.00000E+00  0.00000E+00  Core 3
 
  0.00000E+00  0.00000E+00  0.00000E+00  1.77490E-04  0.00000E+00  0.00000E+00
  0.00000E+00  0.00000E+00  0.00000E+00  2.10205E-04  0.00000E+00  0.00000E+00  Core 4
 
  0.00000E+00  0.00000E+00  0.00000E+00  0.00000E+00  3.46176E-03  0.00000E+00
  0.00000E+00  0.00000E+00  0.00000E+00  0.00000E+00  2.69634E-05  0.00000E+00  Core 5
 
  0.00000E+00  0.00000E+00  0.00000E+00  0.00000E+00  0.00000E+00  3.46176E-03
  0.00000E+00  0.00000E+00  0.00000E+00  0.00000E+00  0.00000E+00  2.69634E-05  Core 6
           Eigenvector rotation has been made.


             Earth impedance [Ze] in Ohm/m
  9.70920E-05  9.70901E-05  9.70843E-05  9.77025E-05  9.68901E-05  9.68849E-05
  5.46397E-04  5.42759E-04  5.32964E-04  5.71189E-04  5.28640E-04  5.21179E-04  Core 1
 
  9.70901E-05  9.70920E-05  9.70901E-05  9.77114E-05  9.68893E-05  9.68893E-05
  5.42759E-04  5.46397E-04  5.42759E-04  5.99297E-04  5.27501E-04  5.27501E-04  Core 2
 
  9.70843E-05  9.70901E-05  9.70920E-05  9.77160E-05  9.68849E-05  9.68901E-05
  5.32964E-04  5.42759E-04  5.46397E-04  6.20330E-04  5.21179E-04  5.28640E-04  Core 3
 
  9.77025E-05  9.77114E-05  9.77160E-05  9.83577E-05  9.74996E-05  9.75086E-05
  5.71189E-04  5.99297E-04  6.20330E-04  8.71381E-04  5.62428E-04  5.87698E-04  Core 4
 
  9.68901E-05  9.68893E-05  9.68849E-05  9.74996E-05  9.66900E-05  9.66864E-05
  5.28640E-04  5.27501E-04  5.21179E-04  5.62428E-04  5.13574E-04  5.09345E-04  Core 5
 
  9.68849E-05  9.68893E-05  9.68901E-05  9.75086E-05  9.66864E-05  9.66900E-05
  5.21179E-04  5.27501E-04  5.28640E-04  5.87698E-04  5.09345E-04  5.13574E-04  Core 6


             Conductor internal impedance [Zi] in Ohm/m
  1.67036E-04  0.00000E+00  0.00000E+00  0.00000E+00  0.00000E+00  0.00000E+00
  2.55170E-05  0.00000E+00  0.00000E+00  0.00000E+00  0.00000E+00  0.00000E+00  Core 1
 
  0.00000E+00  1.67036E-04  0.00000E+00  0.00000E+00  0.00000E+00  0.00000E+00
  0.00000E+00  2.55170E-05  0.00000E+00  0.00000E+00  0.00000E+00  0.00000E+00  Core 2
 
  0.00000E+00  0.00000E+00  1.67036E-04  0.00000E+00  0.00000E+00  0.00000E+00
  0.00000E+00  0.00000E+00  2.55170E-05  0.00000E+00  0.00000E+00  0.00000E+00  Core 3
 
  0.00000E+00  0.00000E+00  0.00000E+00  1.94273E-04  0.00000E+00  0.00000E+00
  0.00000E+00  0.00000E+00  0.00000E+00  2.57833E-04  0.00000E+00  0.00000E+00  Core 4
 
  0.00000E+00  0.00000E+00  0.00000E+00  0.00000E+00  3.46179E-03  0.00000E+00
  0.00000E+00  0.00000E+00  0.00000E+00  0.00000E+00  3.39448E-05  0.00000E+00  Core 5
 
  0.00000E+00  0.00000E+00  0.00000E+00  0.00000E+00  0.00000E+00  3.46179E-03
  0.00000E+00  0.00000E+00  0.00000E+00  0.00000E+00  0.00000E+00  3.39448E-05  Core 6
           Eigenvector rotation has been made.


             Earth impedance [Ze] in Ohm/m
  1.22027E-04  1.22024E-04  1.22016E-04  1.22884E-04  1.21744E-04  1.21736E-04
  6.69917E-04  6.65338E-04  6.53008E-04  7.01031E-04  6.47596E-04  6.38203E-04  Core 1
 
  1.22024E-04  1.22027E-04  1.22024E-04  1.22897E-04  1.21743E-04  1.21743E-04
  6.65338E-04  6.69917E-04  6.65338E-04  7.36416E-04  6.46161E-04  6.46161E-04  Core 2
 
  1.22016E-04  1.22024E-04  1.22027E-04  1.22904E-04  1.21736E-04  1.21744E-04
  6.53008E-04  6.65338E-04  6.69917E-04  7.62894E-04  6.38203E-04  6.47596E-04  Core 3
 
  1.22884E-04  1.22897E-04  1.22904E-04  1.23809E-04  1.22599E-04  1.22613E-04
  7.01031E-04  7.36416E-04  7.62894E-04  1.07885E-03  6.90034E-04  7.21847E-04  Core 4
 
  1.21744E-04  1.21743E-04  1.21736E-04  1.22599E-04  1.21463E-04  1.21458E-04
  6.47596E-04  6.46161E-04  6.38203E-04  6.90034E-04  6.28660E-04  6.23337E-04  Core 5
 
  1.21736E-04  1.21743E-04  1.21744E-04  1.22613E-04  1.21458E-04  1.21463E-04
  6.38203E-04  6.46161E-04  6.47596E-04  7.21847E-04  6.23337E-04  6.28660E-04  Core 6


             Conductor internal impedance [Zi] in Ohm/m
  1.67638E-04  0.00000E+00  0.00000E+00  0.00000E+00  0.00000E+00  0.00000E+00
  3.20774E-05  0.00000E+00  0.00000E+00  0.00000E+00  0.00000E+00  0.00000E+00  Core 1
 
  0.00000E+00  1.67638E-04  0.00000E+00  0.00000E+00  0.00000E+00  0.00000E+00
  0.00000E+00  3.20774E-05  0.00000E+00  0.00000E+00  0.00000E+00  0.00000E+00  Core 2
 
  0.00000E+00  0.00000E+00  1.67638E-04  0.00000E+00  0.00000E+00  0.00000E+00
  0.00000E+00  0.00000E+00  3.20774E-05  0.00000E+00  0.00000E+00  0.00000E+00  Core 3
 
  0.00000E+00  0.00000E+00  0.00000E+00  2.17469E-04  0.00000E+00  0.00000E+00
  0.00000E+00  0.00000E+00  0.00000E+00  3.12896E-04  0.00000E+00  0.00000E+00  Core 4
 
  0.00000E+00  0.00000E+00  0.00000E+00  0.00000E+00  3.46185E-03  0.00000E+00
  0.00000E+00  0.00000E+00  0.00000E+00  0.00000E+00  4.27337E-05  0.00000E+00  Core 5
 
  0.00000E+00  0.00000E+00  0.00000E+00  0.00000E+00  0.00000E+00  3.46185E-03
  0.00000E+00  0.00000E+00  0.00000E+00  0.00000E+00  0.00000E+00  4.27337E-05  Core 6
           Eigenvector rotation has been made.


             Earth impedance [Ze] in Ohm/m
  1.53337E-04  1.53332E-04  1.53318E-04  1.54537E-04  1.52939E-04  1.52927E-04
  8.20805E-04  8.15040E-04  7.99517E-04  8.59836E-04  7.92749E-04  7.80925E-04  Core 1
 
  1.53332E-04  1.53337E-04  1.53332E-04  1.54558E-04  1.52937E-04  1.52937E-04
  8.15040E-04  8.20805E-04  8.15040E-04  9.04382E-04  7.90943E-04  7.90943E-04  Core 2
 
  1.53318E-04  1.53332E-04  1.53337E-04  1.54569E-04  1.52927E-04  1.52939E-04
  7.99517E-04  8.15040E-04  8.20805E-04  9.37716E-04  7.80925E-04  7.92749E-04  Core 3
 
  1.54537E-04  1.54558E-04  1.54569E-04  1.55844E-04  1.54137E-04  1.54159E-04
  8.59836E-04  9.04382E-04  9.37716E-04  1.33534E-03  8.46038E-04  8.86086E-04  Core 4
 
  1.52939E-04  1.52937E-04  1.52927E-04  1.54137E-04  1.52546E-04  1.52537E-04
  7.92749E-04  7.90943E-04  7.80925E-04  8.46038E-04  7.68956E-04  7.62254E-04  Core 5
 
  1.52927E-04  1.52937E-04  1.52939E-04  1.54159E-04  1.52537E-04  1.52546E-04
  7.80925E-04  7.90943E-04  7.92749E-04  8.86086E-04  7.62254E-04  7.68956E-04  Core 6


             Conductor internal impedance [Zi] in Ohm/m
  1.68587E-04  0.00000E+00  0.00000E+00  0.00000E+00  0.00000E+00  0.00000E+00
  4.02907E-05  0.00000E+00  0.00000E+00  0.00000E+00  0.00000E+00  0.00000E+00  Core 1
 
  0.00000E+00  1.68587E-04  0.00000E+00  0.00000E+00  0.00000E+00  0.00000E+00
  0.00000E+00  4.02907E-05  0.00000E+00  0.00000E+00  0.00000E+00  0.00000E+00  Core 2
 
  0.00000E+00  0.00000E+00  1.68587E-04  0.00000E+00  0.00000E+00  0.00000E+00
  0.00000E+00  0.00000E+00  4.02907E-05  0.00000E+00  0.00000E+00  0.00000E+00  Core 3
 
  0.00000E+00  0.00000E+00  0.00000E+00  2.47759E-04  0.00000E+00  0.00000E+00
  0.00000E+00  0.00000E+00  0.00000E+00  3.75052E-04  0.00000E+00  0.00000E+00  Core 4
 
  0.00000E+00  0.00000E+00  0.00000E+00  0.00000E+00  3.46194E-03  0.00000E+00
  0.00000E+00  0.00000E+00  0.00000E+00  0.00000E+00  5.37979E-05  0.00000E+00  Core 5
 
  0.00000E+00  0.00000E+00  0.00000E+00  0.00000E+00  0.00000E+00  3.46194E-03
  0.00000E+00  0.00000E+00  0.00000E+00  0.00000E+00  0.00000E+00  5.37979E-05  Core 6
           Eigenvector rotation has been made.


             Earth impedance [Ze] in Ohm/m
  1.92637E-04  1.92630E-04  1.92609E-04  1.94319E-04  1.92080E-04  1.92061E-04
  1.00496E-03  9.97705E-04  9.78164E-04  1.05390E-03  9.69706E-04  9.54821E-04  Core 1
 
  1.92630E-04  1.92637E-04  1.92630E-04  1.94351E-04  1.92077E-04  1.92077E-04
  9.97705E-04  1.00496E-03  9.97705E-04  1.10998E-03  9.67432E-04  9.67432E-04  Core 2
 
  1.92609E-04  1.92630E-04  1.92637E-04  1.94368E-04  1.92061E-04  1.92080E-04
  9.78164E-04  9.97705E-04  1.00496E-03  1.15195E-03  9.54821E-04  9.69706E-04  Core 3
 
  1.94319E-04  1.94351E-04  1.94368E-04  1.96164E-04  1.93758E-04  1.93791E-04
  1.05390E-03  1.10998E-03  1.15195E-03  1.65233E-03  1.03660E-03  1.08701E-03  Core 4
 
  1.92080E-04  1.92077E-04  1.92061E-04  1.93758E-04  1.91528E-04  1.91516E-04
  9.69706E-04  9.67432E-04  9.54821E-04  1.03660E-03  9.39816E-04  9.31380E-04  Core 5
 
  1.92061E-04  1.92077E-04  1.92080E-04  1.93791E-04  1.91516E-04  1.91528E-04
  9.54821E-04  9.67432E-04  9.69706E-04  1.08701E-03  9.31380E-04  9.39816E-04  Core 6


             Conductor internal impedance [Zi] in Ohm/m
  1.70076E-04  0.00000E+00  0.00000E+00  0.00000E+00  0.00000E+00  0.00000E+00
  5.05405E-05  0.00000E+00  0.00000E+00  0.00000E+00  0.00000E+00  0.00000E+00  Core 1
 
  0.00000E+00  1.70076E-04  0.00000E+00  0.00000E+00  0.00000E+00  0.00000E+00
  0.00000E+00  5.05405E-05  0.00000E+00  0.00000E+00  0.00000E+00  0.00000E+00  Core 2
 
  0.00000E+00  0.00000E+00  1.70076E-04  0.00000E+00  0.00000E+00  0.00000E+00
  0.00000E+00  0.00000E+00  5.05405E-05  0.00000E+00  0.00000E+00  0.00000E+00  Core 3
 
  0.00000E+00  0.00000E+00  0.00000E+00  2.84749E-04  0.00000E+00  0.00000E+00
  0.00000E+00  0.00000E+00  0.00000E+00  4.44090E-04  0.00000E+00  0.00000E+00  Core 4
 
  0.00000E+00  0.00000E+00  0.00000E+00  0.00000E+00  3.46208E-03  0.00000E+00
  0.00000E+00  0.00000E+00  0.00000E+00  0.00000E+00  6.77262E-05  0.00000E+00  Core 5
 
  0.00000E+00  0.00000E+00  0.00000E+00  0.00000E+00  0.00000E+00  3.46208E-03
  0.00000E+00  0.00000E+00  0.00000E+00  0.00000E+00  0.00000E+00  6.77262E-05  Core 6
           Eigenvector rotation has been made.


             Earth impedance [Ze] in Ohm/m
  2.41952E-04  2.41941E-04  2.41909E-04  2.44305E-04  2.41171E-04  2.41142E-04
  1.22952E-03  1.22039E-03  1.19579E-03  1.29086E-03  1.18523E-03  1.16649E-03  Core 1
 
  2.41941E-04  2.41952E-04  2.41941E-04  2.44355E-04  2.41166E-04  2.41166E-04
  1.22039E-03  1.22952E-03  1.22039E-03  1.36146E-03  1.18236E-03  1.18236E-03  Core 2
 
  2.41909E-04  2.41941E-04  2.41952E-04  2.44381E-04  2.41142E-04  2.41171E-04
  1.19579E-03  1.22039E-03  1.22952E-03  1.41429E-03  1.16649E-03  1.18523E-03  Core 3
 
  2.44305E-04  2.44355E-04  2.44381E-04  2.46911E-04  2.43519E-04  2.43569E-04
  1.29086E-03  1.36146E-03  1.41429E-03  2.04395E-03  1.26917E-03  1.33263E-03  Core 4
 
  2.41171E-04  2.41166E-04  2.41142E-04  2.43519E-04  2.40399E-04  2.40379E-04
  1.18523E-03  1.18236E-03  1.16649E-03  1.26917E-03  1.14769E-03  1.13707E-03  Core 5
 
  2.41142E-04  2.41166E-04  2.41171E-04  2.43569E-04  2.40379E-04  2.40399E-04
  1.16649E-03  1.18236E-03  1.18523E-03  1.33263E-03  1.13707E-03  1.14769E-03  Core 6


             Conductor internal impedance [Zi] in Ohm/m
  1.72402E-04  0.00000E+00  0.00000E+00  0.00000E+00  0.00000E+00  0.00000E+00
  6.32675E-05  0.00000E+00  0.00000E+00  0.00000E+00  0.00000E+00  0.00000E+00  Core 1
 
  0.00000E+00  1.72402E-04  0.00000E+00  0.00000E+00  0.00000E+00  0.00000E+00
  0.00000E+00  6.32675E-05  0.00000E+00  0.00000E+00  0.00000E+00  0.00000E+00  Core 2
 
  0.00000E+00  0.00000E+00  1.72402E-04  0.00000E+00  0.00000E+00  0.00000E+00
  0.00000E+00  0.00000E+00  6.32675E-05  0.00000E+00  0.00000E+00  0.00000E+00  Core 3
 
  0.00000E+00  0.00000E+00  0.00000E+00  3.26951E-04  0.00000E+00  0.00000E+00
  0.00000E+00  0.00000E+00  0.00000E+00  5.20901E-04  0.00000E+00  0.00000E+00  Core 4
 
  0.00000E+00  0.00000E+00  0.00000E+00  0.00000E+00  3.46230E-03  0.00000E+00
  0.00000E+00  0.00000E+00  0.00000E+00  0.00000E+00  8.52598E-05  0.00000E+00  Core 5
 
  0.00000E+00  0.00000E+00  0.00000E+00  0.00000E+00  0.00000E+00  3.46230E-03
  0.00000E+00  0.00000E+00  0.00000E+00  0.00000E+00  0.00000E+00  8.52598E-05  Core 6
           Eigenvector rotation has been made.


             Earth impedance [Ze] in Ohm/m
  3.03809E-04  3.03793E-04  3.03744E-04  3.07100E-04  3.02715E-04  3.02671E-04
  1.50309E-03  1.49159E-03  1.46062E-03  1.57992E-03  1.44745E-03  1.42386E-03  Core 1
 
  3.03793E-04  3.03809E-04  3.03793E-04  3.07177E-04  3.02709E-04  3.02709E-04
  1.49159E-03  1.50309E-03  1.49159E-03  1.66880E-03  1.44385E-03  1.44385E-03  Core 2
 
  3.03744E-04  3.03793E-04  3.03809E-04  3.07217E-04  3.02671E-04  3.02715E-04
  1.46062E-03  1.49159E-03  1.50309E-03  1.73530E-03  1.42386E-03  1.44745E-03  Core 3
 
  3.07100E-04  3.07177E-04  3.07217E-04  3.10779E-04  3.05999E-04  3.06076E-04
  1.57992E-03  1.66880E-03  1.73530E-03  2.52760E-03  1.55274E-03  1.63263E-03  Core 4
 
  3.02715E-04  3.02709E-04  3.02671E-04  3.05999E-04  3.01636E-04  3.01606E-04
  1.44745E-03  1.44385E-03  1.42386E-03  1.55274E-03  1.40032E-03  1.38695E-03  Core 5
 
  3.02671E-04  3.02709E-04  3.02715E-04  3.06076E-04  3.01606E-04  3.01636E-04
  1.42386E-03  1.44385E-03  1.44745E-03  1.63263E-03  1.38695E-03  1.40032E-03  Core 6


             Conductor internal impedance [Zi] in Ohm/m
  1.76002E-04  0.00000E+00  0.00000E+00  0.00000E+00  0.00000E+00  0.00000E+00
  7.89508E-05  0.00000E+00  0.00000E+00  0.00000E+00  0.00000E+00  0.00000E+00  Core 1
 
  0.00000E+00  1.76002E-04  0.00000E+00  0.00000E+00  0.00000E+00  0.00000E+00
  0.00000E+00  7.89508E-05  0.00000E+00  0.00000E+00  0.00000E+00  0.00000E+00  Core 2
 
  0.00000E+00  0.00000E+00  1.76002E-04  0.00000E+00  0.00000E+00  0.00000E+00
  0.00000E+00  0.00000E+00  7.89508E-05  0.00000E+00  0.00000E+00  0.00000E+00  Core 3
 
  0.00000E+00  0.00000E+00  0.00000E+00  3.72577E-04  0.00000E+00  0.00000E+00
  0.00000E+00  0.00000E+00  0.00000E+00  6.08321E-04  0.00000E+00  0.00000E+00  Core 4
 
  0.00000E+00  0.00000E+00  0.00000E+00  0.00000E+00  3.46265E-03  0.00000E+00
  0.00000E+00  0.00000E+00  0.00000E+00  0.00000E+00  1.07331E-04  0.00000E+00  Core 5
 
  0.00000E+00  0.00000E+00  0.00000E+00  0.00000E+00  0.00000E+00  3.46265E-03
  0.00000E+00  0.00000E+00  0.00000E+00  0.00000E+00  0.00000E+00  1.07331E-04  Core 6
           Eigenvector rotation has been made.


             Earth impedance [Ze] in Ohm/m
  3.81366E-04  3.81341E-04  3.81267E-04  3.85965E-04  3.79836E-04  3.79768E-04
  1.83601E-03  1.82154E-03  1.78256E-03  1.93220E-03  1.76615E-03  1.73646E-03  Core 1
 
  3.81341E-04  3.81366E-04  3.81341E-04  3.86082E-04  3.79826E-04  3.79826E-04
  1.82154E-03  1.83601E-03  1.82154E-03  2.04408E-03  1.76161E-03  1.76161E-03  Core 2
 
  3.81267E-04  3.81341E-04  3.81366E-04  3.86143E-04  3.79768E-04  3.79836E-04
  1.78256E-03  1.82154E-03  1.83601E-03  2.12781E-03  1.73646E-03  1.76615E-03  Core 3
 
  3.85965E-04  3.86082E-04  3.86143E-04  3.91157E-04  3.84423E-04  3.84541E-04
  1.93220E-03  2.04408E-03  2.12781E-03  3.12469E-03  1.89816E-03  1.99874E-03  Core 4
 
  3.79836E-04  3.79826E-04  3.79768E-04  3.84423E-04  3.78327E-04  3.78282E-04
  1.76615E-03  1.76161E-03  1.73646E-03  1.89816E-03  1.70699E-03  1.69016E-03  Core 5
 
  3.79768E-04  3.79826E-04  3.79836E-04  3.84541E-04  3.78282E-04  3.78327E-04
  1.73646E-03  1.76161E-03  1.76615E-03  1.99874E-03  1.69016E-03  1.70699E-03  Core 6


             Conductor internal impedance [Zi] in Ohm/m
  1.81506E-04  0.00000E+00  0.00000E+00  0.00000E+00  0.00000E+00  0.00000E+00
  9.80523E-05  0.00000E+00  0.00000E+00  0.00000E+00  0.00000E+00  0.00000E+00  Core 1
 
  0.00000E+00  1.81506E-04  0.00000E+00  0.00000E+00  0.00000E+00  0.00000E+00
  0.00000E+00  9.80523E-05  0.00000E+00  0.00000E+00  0.00000E+00  0.00000E+00  Core 2
 
  0.00000E+00  0.00000E+00  1.81506E-04  0.00000E+00  0.00000E+00  0.00000E+00
  0.00000E+00  0.00000E+00  9.80523E-05  0.00000E+00  0.00000E+00  0.00000E+00  Core 3
 
  0.00000E+00  0.00000E+00  0.00000E+00  4.20755E-04  0.00000E+00  0.00000E+00
  0.00000E+00  0.00000E+00  0.00000E+00  7.11080E-04  0.00000E+00  0.00000E+00  Core 4
 
  0.00000E+00  0.00000E+00  0.00000E+00  0.00000E+00  3.46320E-03  0.00000E+00
  0.00000E+00  0.00000E+00  0.00000E+00  0.00000E+00  1.35111E-04  0.00000E+00  Core 5
 
  0.00000E+00  0.00000E+00  0.00000E+00  0.00000E+00  0.00000E+00  3.46320E-03
  0.00000E+00  0.00000E+00  0.00000E+00  0.00000E+00  0.00000E+00  1.35111E-04  Core 6
           Eigenvector rotation has been made.


             Earth impedance [Ze] in Ohm/m
  4.78563E-04  4.78525E-04  4.78412E-04  4.84982E-04  4.76424E-04  4.76321E-04
  2.24076E-03  2.22254E-03  2.17347E-03  2.36109E-03  2.15306E-03  2.11568E-03  Core 1
 
  4.78525E-04  4.78563E-04  4.78525E-04  4.85162E-04  4.76409E-04  4.76409E-04
  2.22254E-03  2.24076E-03  2.22254E-03  2.50193E-03  2.14735E-03  2.14735E-03  Core 2
 
  4.78412E-04  4.78525E-04  4.78563E-04  4.85255E-04  4.76321E-04  4.76424E-04
  2.17347E-03  2.22254E-03  2.24076E-03  2.60733E-03  2.11568E-03  2.15306E-03  Core 3
 
  4.84982E-04  4.85162E-04  4.85255E-04  4.92312E-04  4.82826E-04  4.83007E-04
  2.36109E-03  2.50193E-03  2.60733E-03  3.86154E-03  2.31848E-03  2.44510E-03  Core 4
 
  4.76424E-04  4.76409E-04  4.76321E-04  4.82826E-04  4.74318E-04  4.74249E-04
  2.15306E-03  2.14735E-03  2.11568E-03  2.31848E-03  2.07883E-03  2.05765E-03  Core 5
 
  4.76321E-04  4.76409E-04  4.76424E-04  4.83007E-04  4.74249E-04  4.74318E-04
  2.11568E-03  2.14735E-03  2.15306E-03  2.44510E-03  2.05765E-03  2.07883E-03  Core 6


             Conductor internal impedance [Zi] in Ohm/m
  1.89753E-04  0.00000E+00  0.00000E+00  0.00000E+00  0.00000E+00  0.00000E+00
  1.20921E-04  0.00000E+00  0.00000E+00  0.00000E+00  0.00000E+00  0.00000E+00  Core 1
 
  0.00000E+00  1.89753E-04  0.00000E+00  0.00000E+00  0.00000E+00  0.00000E+00
  0.00000E+00  1.20921E-04  0.00000E+00  0.00000E+00  0.00000E+00  0.00000E+00  Core 2
 
  0.00000E+00  0.00000E+00  1.89753E-04  0.00000E+00  0.00000E+00  0.00000E+00
  0.00000E+00  0.00000E+00  1.20921E-04  0.00000E+00  0.00000E+00  0.00000E+00  Core 3
 
  0.00000E+00  0.00000E+00  0.00000E+00  4.72173E-04  0.00000E+00  0.00000E+00
  0.00000E+00  0.00000E+00  0.00000E+00  8.34887E-04  0.00000E+00  0.00000E+00  Core 4
 
  0.00000E+00  0.00000E+00  0.00000E+00  0.00000E+00  3.46407E-03  0.00000E+00
  0.00000E+00  0.00000E+00  0.00000E+00  0.00000E+00  1.70075E-04  0.00000E+00  Core 5
 
  0.00000E+00  0.00000E+00  0.00000E+00  0.00000E+00  0.00000E+00  3.46407E-03
  0.00000E+00  0.00000E+00  0.00000E+00  0.00000E+00  0.00000E+00  1.70075E-04  Core 6
           Eigenvector rotation has been made.


             Earth impedance [Ze] in Ohm/m
  6.00311E-04  6.00253E-04  6.00080E-04  6.09260E-04  5.97323E-04  5.97167E-04
  2.73226E-03  2.70933E-03  2.64757E-03  2.88269E-03  2.62221E-03  2.57517E-03  Core 1
 
  6.00253E-04  6.00311E-04  6.00253E-04  6.09536E-04  5.97300E-04  5.97300E-04
  2.70933E-03  2.73226E-03  2.70933E-03  3.05998E-03  2.61502E-03  2.61502E-03  Core 2
 
  6.00080E-04  6.00253E-04  6.00311E-04  6.09679E-04  5.97167E-04  5.97323E-04
  2.64757E-03  2.70933E-03  2.73226E-03  3.19266E-03  2.57517E-03  2.62221E-03  Core 3
 
  6.09260E-04  6.09536E-04  6.09679E-04  6.19606E-04  6.06248E-04  6.06525E-04
  2.88269E-03  3.05998E-03  3.19266E-03  4.77050E-03  2.82940E-03  2.98879E-03  Core 4
 
  5.97323E-04  5.97300E-04  5.97167E-04  6.06248E-04  5.94387E-04  5.94282E-04
  2.62221E-03  2.61502E-03  2.57517E-03  2.82940E-03  2.52911E-03  2.50245E-03  Core 5
 
  5.97167E-04  5.97300E-04  5.97323E-04  6.06525E-04  5.94282E-04  5.94387E-04
  2.57517E-03  2.61502E-03  2.62221E-03  2.98879E-03  2.50245E-03  2.52911E-03  Core 6


             Conductor internal impedance [Zi] in Ohm/m
  2.01761E-04  0.00000E+00  0.00000E+00  0.00000E+00  0.00000E+00  0.00000E+00
  1.47647E-04  0.00000E+00  0.00000E+00  0.00000E+00  0.00000E+00  0.00000E+00  Core 1
 
  0.00000E+00  2.01761E-04  0.00000E+00  0.00000E+00  0.00000E+00  0.00000E+00
  0.00000E+00  1.47647E-04  0.00000E+00  0.00000E+00  0.00000E+00  0.00000E+00  Core 2
 
  0.00000E+00  0.00000E+00  2.01761E-04  0.00000E+00  0.00000E+00  0.00000E+00
  0.00000E+00  0.00000E+00  1.47647E-04  0.00000E+00  0.00000E+00  0.00000E+00  Core 3
 
  0.00000E+00  0.00000E+00  0.00000E+00  5.28663E-04  0.00000E+00  0.00000E+00
  0.00000E+00  0.00000E+00  0.00000E+00  9.85484E-04  0.00000E+00  0.00000E+00  Core 4
 
  0.00000E+00  0.00000E+00  0.00000E+00  0.00000E+00  3.46546E-03  0.00000E+00
  0.00000E+00  0.00000E+00  0.00000E+00  0.00000E+00  2.14072E-04  0.00000E+00  Core 5
 
  0.00000E+00  0.00000E+00  0.00000E+00  0.00000E+00  0.00000E+00  3.46546E-03
  0.00000E+00  0.00000E+00  0.00000E+00  0.00000E+00  0.00000E+00  2.14072E-04  Core 6
           Eigenvector rotation has been made.


             Earth impedance [Ze] in Ohm/m
  7.52725E-04  7.52636E-04  7.52373E-04  7.65186E-04  7.48555E-04  7.48319E-04
  3.32843E-03  3.29956E-03  3.22182E-03  3.51630E-03  3.19037E-03  3.13116E-03  Core 1
 
  7.52636E-04  7.52725E-04  7.52636E-04  7.65608E-04  7.48520E-04  7.48520E-04
  3.29956E-03  3.32843E-03  3.29956E-03  3.73948E-03  3.18132E-03  3.18132E-03  Core 2
 
  7.52373E-04  7.52636E-04  7.52725E-04  7.65827E-04  7.48319E-04  7.48555E-04
  3.22182E-03  3.29956E-03  3.32843E-03  3.90650E-03  3.13116E-03  3.19037E-03  Core 3
 
  7.65186E-04  7.65608E-04  7.65827E-04  7.79786E-04  7.60982E-04  7.61405E-04
  3.51630E-03  3.73948E-03  3.90650E-03  5.89131E-03  3.44972E-03  3.65035E-03  Core 4
 
  7.48555E-04  7.48520E-04  7.48319E-04  7.60982E-04  7.44465E-04  7.44306E-04
  3.19037E-03  3.18132E-03  3.13116E-03  3.44972E-03  3.07365E-03  3.04011E-03  Core 5
 
  7.48319E-04  7.48520E-04  7.48555E-04  7.61405E-04  7.44306E-04  7.44465E-04
  3.13116E-03  3.18132E-03  3.19037E-03  3.65035E-03  3.04011E-03  3.07365E-03  Core 6


             Conductor internal impedance [Zi] in Ohm/m
  2.18559E-04  0.00000E+00  0.00000E+00  0.00000E+00  0.00000E+00  0.00000E+00
  1.77920E-04  0.00000E+00  0.00000E+00  0.00000E+00  0.00000E+00  0.00000E+00  Core 1
 
  0.00000E+00  2.18559E-04  0.00000E+00  0.00000E+00  0.00000E+00  0.00000E+00
  0.00000E+00  1.77920E-04  0.00000E+00  0.00000E+00  0.00000E+00  0.00000E+00  Core 2
 
  0.00000E+00  0.00000E+00  2.18559E-04  0.00000E+00  0.00000E+00  0.00000E+00
  0.00000E+00  0.00000E+00  1.77920E-04  0.00000E+00  0.00000E+00  0.00000E+00  Core 3
 
  0.00000E+00  0.00000E+00  0.00000E+00  5.92166E-04  0.00000E+00  0.00000E+00
  0.00000E+00  0.00000E+00  0.00000E+00  1.16856E-03  0.00000E+00  0.00000E+00  Core 4
 
  0.00000E+00  0.00000E+00  0.00000E+00  0.00000E+00  3.46766E-03  0.00000E+00
  0.00000E+00  0.00000E+00  0.00000E+00  0.00000E+00  2.69422E-04  0.00000E+00  Core 5
 
  0.00000E+00  0.00000E+00  0.00000E+00  0.00000E+00  0.00000E+00  3.46766E-03
  0.00000E+00  0.00000E+00  0.00000E+00  0.00000E+00  0.00000E+00  2.69422E-04  Core 6
           Eigenvector rotation has been made.


             Earth impedance [Ze] in Ohm/m
  9.43407E-04  9.43273E-04  9.42873E-04  9.60737E-04  9.37596E-04  9.37238E-04
  4.05064E-03  4.01430E-03  3.91646E-03  4.28505E-03  3.87753E-03  3.80302E-03  Core 1
 
  9.43273E-04  9.43407E-04  9.43273E-04  9.61382E-04  9.37544E-04  9.37544E-04
  4.01430E-03  4.05064E-03  4.01430E-03  4.56599E-03  3.86615E-03  3.86615E-03  Core 2
 
  9.42873E-04  9.43273E-04  9.43407E-04  9.61716E-04  9.37238E-04  9.37596E-04
  3.91646E-03  4.01430E-03  4.05064E-03  4.77624E-03  3.80302E-03  3.87753E-03  Core 3
 
  9.60737E-04  9.61382E-04  9.61716E-04  9.81338E-04  9.54877E-04  9.55521E-04
  4.28505E-03  4.56599E-03  4.77624E-03  7.27275E-03  4.20193E-03  4.45447E-03  Core 4
 
  9.37596E-04  9.37544E-04  9.37238E-04  9.54877E-04  9.31905E-04  9.31665E-04
  3.87753E-03  3.86615E-03  3.80302E-03  4.20193E-03  3.73128E-03  3.68906E-03  Core 5
 
  9.37238E-04  9.37544E-04  9.37596E-04  9.55521E-04  9.31665E-04  9.31905E-04
  3.80302E-03  3.86615E-03  3.87753E-03  4.45447E-03  3.68906E-03  3.73128E-03  Core 6


             Conductor internal impedance [Zi] in Ohm/m
  2.41763E-04  0.00000E+00  0.00000E+00  0.00000E+00  0.00000E+00  0.00000E+00
  2.10723E-04  0.00000E+00  0.00000E+00  0.00000E+00  0.00000E+00  0.00000E+00  Core 1
 
  0.00000E+00  2.41763E-04  0.00000E+00  0.00000E+00  0.00000E+00  0.00000E+00
  0.00000E+00  2.10723E-04  0.00000E+00  0.00000E+00  0.00000E+00  0.00000E+00  Core 2
 
  0.00000E+00  0.00000E+00  2.41763E-04  0.00000E+00  0.00000E+00  0.00000E+00
  0.00000E+00  0.00000E+00  2.10723E-04  0.00000E+00  0.00000E+00  0.00000E+00  Core 3
 
  0.00000E+00  0.00000E+00  0.00000E+00  6.63987E-04  0.00000E+00  0.00000E+00
  0.00000E+00  0.00000E+00  0.00000E+00  1.39063E-03  0.00000E+00  0.00000E+00  Core 4
 
  0.00000E+00  0.00000E+00  0.00000E+00  0.00000E+00  3.47114E-03  0.00000E+00
  0.00000E+00  0.00000E+00  0.00000E+00  0.00000E+00  3.39025E-04  0.00000E+00  Core 5
 
  0.00000E+00  0.00000E+00  0.00000E+00  0.00000E+00  0.00000E+00  3.47114E-03
  0.00000E+00  0.00000E+00  0.00000E+00  0.00000E+00  0.00000E+00  3.39025E-04  Core 6
           Eigenvector rotation has been made.


             Earth impedance [Ze] in Ohm/m
  1.18180E-03  1.18160E-03  1.18099E-03  1.20587E-03  1.17371E-03  1.17317E-03
  4.92440E-03  4.87867E-03  4.75553E-03  5.21657E-03  4.70745E-03  4.61367E-03  Core 1
 
  1.18160E-03  1.18180E-03  1.18160E-03  1.20685E-03  1.17363E-03  1.17363E-03
  4.87867E-03  4.92440E-03  4.87867E-03  5.57019E-03  4.69312E-03  4.69312E-03  Core 2
 
  1.18099E-03  1.18160E-03  1.18180E-03  1.20736E-03  1.17317E-03  1.17371E-03
  4.75553E-03  4.87867E-03  4.92440E-03  5.83486E-03  4.61367E-03  4.70745E-03  Core 3
 
  1.20587E-03  1.20685E-03  1.20736E-03  1.23493E-03  1.19771E-03  1.19869E-03
  5.21657E-03  5.57019E-03  5.83486E-03  8.97465E-03  5.11291E-03  5.43079E-03  Core 4
 
  1.17371E-03  1.17363E-03  1.17317E-03  1.19771E-03  1.16581E-03  1.16544E-03
  4.70745E-03  4.69312E-03  4.61367E-03  5.11291E-03  4.52430E-03  4.47117E-03  Core 5
 
  1.17317E-03  1.17363E-03  1.17371E-03  1.19869E-03  1.16544E-03  1.16581E-03
  4.61367E-03  4.69312E-03  4.70745E-03  5.43079E-03  4.47117E-03  4.52430E-03  Core 6


             Conductor internal impedance [Zi] in Ohm/m
  2.68950E-04  0.00000E+00  0.00000E+00  0.00000E+00  0.00000E+00  0.00000E+00
  2.45086E-04  0.00000E+00  0.00000E+00  0.00000E+00  0.00000E+00  0.00000E+00  Core 1
 
  0.00000E+00  2.68950E-04  0.00000E+00  0.00000E+00  0.00000E+00  0.00000E+00
  0.00000E+00  2.45086E-04  0.00000E+00  0.00000E+00  0.00000E+00  0.00000E+00  Core 2
 
  0.00000E+00  0.00000E+00  2.68950E-04  0.00000E+00  0.00000E+00  0.00000E+00
  0.00000E+00  0.00000E+00  2.45086E-04  0.00000E+00  0.00000E+00  0.00000E+00  Core 3
 
  0.00000E+00  0.00000E+00  0.00000E+00  7.44894E-04  0.00000E+00  0.00000E+00
  0.00000E+00  0.00000E+00  0.00000E+00  1.66016E-03  0.00000E+00  0.00000E+00  Core 4
 
  0.00000E+00  0.00000E+00  0.00000E+00  0.00000E+00  3.47664E-03  0.00000E+00
  0.00000E+00  0.00000E+00  0.00000E+00  0.00000E+00  4.26494E-04  0.00000E+00  Core 5
 
  0.00000E+00  0.00000E+00  0.00000E+00  0.00000E+00  0.00000E+00  3.47664E-03
  0.00000E+00  0.00000E+00  0.00000E+00  0.00000E+00  0.00000E+00  4.26494E-04  Core 6
           Eigenvector rotation has been made.


             Earth impedance [Ze] in Ohm/m
  1.47962E-03  1.47931E-03  1.47839E-03  1.51299E-03  1.46837E-03  1.46756E-03
  5.98007E-03  5.92251E-03  5.76755E-03  6.34377E-03  5.70830E-03  5.59031E-03  Core 1
 
  1.47931E-03  1.47962E-03  1.47931E-03  1.51449E-03  1.46825E-03  1.46825E-03
  5.92251E-03  5.98007E-03  5.92251E-03  6.78886E-03  5.69028E-03  5.69028E-03  Core 2
 
  1.47839E-03  1.47931E-03  1.47962E-03  1.51527E-03  1.46756E-03  1.46837E-03
  5.76755E-03  5.92251E-03  5.98007E-03  7.12202E-03  5.59031E-03  5.70830E-03  Core 3
 
  1.51299E-03  1.51449E-03  1.51527E-03  1.55398E-03  1.50165E-03  1.50314E-03
  6.34377E-03  6.78886E-03  7.12202E-03  1.10704E-02  6.21464E-03  6.61474E-03  Core 4
 
  1.46837E-03  1.46825E-03  1.46756E-03  1.50165E-03  1.45740E-03  1.45686E-03
  5.70830E-03  5.69028E-03  5.59031E-03  6.21464E-03  5.47908E-03  5.41223E-03  Core 5
 
  1.46756E-03  1.46825E-03  1.46837E-03  1.50314E-03  1.45686E-03  1.45740E-03
  5.59031E-03  5.69028E-03  5.70830E-03  6.61474E-03  5.41223E-03  5.47908E-03  Core 6


             Conductor internal impedance [Zi] in Ohm/m
  3.01073E-04  0.00000E+00  0.00000E+00  0.00000E+00  0.00000E+00  0.00000E+00
  2.81140E-04  0.00000E+00  0.00000E+00  0.00000E+00  0.00000E+00  0.00000E+00  Core 1
 
  0.00000E+00  3.01073E-04  0.00000E+00  0.00000E+00  0.00000E+00  0.00000E+00
  0.00000E+00  2.81140E-04  0.00000E+00  0.00000E+00  0.00000E+00  0.00000E+00  Core 2
 
  0.00000E+00  0.00000E+00  3.01073E-04  0.00000E+00  0.00000E+00  0.00000E+00
  0.00000E+00  0.00000E+00  2.81140E-04  0.00000E+00  0.00000E+00  0.00000E+00  Core 3
 
  0.00000E+00  0.00000E+00  0.00000E+00  8.35679E-04  0.00000E+00  0.00000E+00
  0.00000E+00  0.00000E+00  0.00000E+00  1.98822E-03  0.00000E+00  0.00000E+00  Core 4
 
  0.00000E+00  0.00000E+00  0.00000E+00  0.00000E+00  3.48533E-03  0.00000E+00
  0.00000E+00  0.00000E+00  0.00000E+00  0.00000E+00  5.36302E-04  0.00000E+00  Core 5
 
  0.00000E+00  0.00000E+00  0.00000E+00  0.00000E+00  0.00000E+00  3.48533E-03
  0.00000E+00  0.00000E+00  0.00000E+00  0.00000E+00  0.00000E+00  5.36302E-04  Core 6
           Eigenvector rotation has been made.


             Earth impedance [Ze] in Ohm/m
  1.85136E-03  1.85089E-03  1.84951E-03  1.89755E-03  1.83575E-03  1.83452E-03
  7.25365E-03  7.18122E-03  6.98622E-03  7.70576E-03  6.91343E-03  6.76496E-03  Core 1
 
  1.85089E-03  1.85136E-03  1.85089E-03  1.89983E-03  1.83557E-03  1.83557E-03
  7.18122E-03  7.25365E-03  7.18122E-03  8.26597E-03  6.89075E-03  6.89075E-03  Core 2
 
  1.84951E-03  1.85089E-03  1.85136E-03  1.90102E-03  1.83452E-03  1.83575E-03
  6.98622E-03  7.18122E-03  7.25365E-03  8.68533E-03  6.76496E-03  6.91343E-03  Core 3
 
  1.89755E-03  1.89983E-03  1.90102E-03  1.95535E-03  1.88180E-03  1.88406E-03
  7.70576E-03  8.26597E-03  8.68533E-03  1.36498E-02  7.54513E-03  8.04870E-03  Core 4
 
  1.83575E-03  1.83557E-03  1.83452E-03  1.88180E-03  1.82055E-03  1.81973E-03
  6.91343E-03  6.89075E-03  6.76496E-03  7.54513E-03  6.62673E-03  6.54264E-03  Core 5
 
  1.83452E-03  1.83557E-03  1.83575E-03  1.88406E-03  1.81973E-03  1.82055E-03
  6.76496E-03  6.89075E-03  6.91343E-03  8.04870E-03  6.54264E-03  6.62673E-03  Core 6


             Conductor internal impedance [Zi] in Ohm/m
  3.36897E-04  0.00000E+00  0.00000E+00  0.00000E+00  0.00000E+00  0.00000E+00
  3.18865E-04  0.00000E+00  0.00000E+00  0.00000E+00  0.00000E+00  0.00000E+00  Core 1
 
  0.00000E+00  3.36897E-04  0.00000E+00  0.00000E+00  0.00000E+00  0.00000E+00
  0.00000E+00  3.18865E-04  0.00000E+00  0.00000E+00  0.00000E+00  0.00000E+00  Core 2
 
  0.00000E+00  0.00000E+00  3.36897E-04  0.00000E+00  0.00000E+00  0.00000E+00
  0.00000E+00  0.00000E+00  3.18865E-04  0.00000E+00  0.00000E+00  0.00000E+00  Core 3
 
  0.00000E+00  0.00000E+00  0.00000E+00  9.37482E-04  0.00000E+00  0.00000E+00
  0.00000E+00  0.00000E+00  0.00000E+00  2.38878E-03  0.00000E+00  0.00000E+00  Core 4
 
  0.00000E+00  0.00000E+00  0.00000E+00  0.00000E+00  3.49903E-03  0.00000E+00
  0.00000E+00  0.00000E+00  0.00000E+00  0.00000E+00  6.73928E-04  0.00000E+00  Core 5
 
  0.00000E+00  0.00000E+00  0.00000E+00  0.00000E+00  0.00000E+00  3.49903E-03
  0.00000E+00  0.00000E+00  0.00000E+00  0.00000E+00  0.00000E+00  6.73928E-04  Core 6
           Eigenvector rotation has been made.


             Earth impedance [Ze] in Ohm/m
  2.31493E-03  2.31423E-03  2.31214E-03  2.37876E-03  2.29329E-03  2.29144E-03
  8.78778E-03  8.69664E-03  8.45129E-03  9.34890E-03  8.36213E-03  8.17535E-03  Core 1
 
  2.31423E-03  2.31493E-03  2.31423E-03  2.38223E-03  2.29302E-03  2.29302E-03
  8.69664E-03  8.78778E-03  8.69664E-03  1.00540E-02  8.33360E-03  8.33360E-03  Core 2
 
  2.31214E-03  2.31423E-03  2.31493E-03  2.38403E-03  2.29144E-03  2.29329E-03
  8.45129E-03  8.69664E-03  8.78778E-03  1.05818E-02  8.17535E-03  8.36213E-03  Core 3
 
  2.37876E-03  2.38223E-03  2.38403E-03  2.46024E-03  2.35693E-03  2.36035E-03
  9.34890E-03  1.00540E-02  1.05818E-02  1.68230E-02  9.14939E-03  9.78313E-03  Core 4
 
  2.29329E-03  2.29302E-03  2.29144E-03  2.35693E-03  2.27228E-03  2.27104E-03
  8.36213E-03  8.33360E-03  8.17535E-03  9.14939E-03  8.00383E-03  7.89805E-03  Core 5
 
  2.29144E-03  2.29302E-03  2.29329E-03  2.36035E-03  2.27104E-03  2.27228E-03
  8.17535E-03  8.33360E-03  8.36213E-03  9.78313E-03  7.89805E-03  8.00383E-03  Core 6


             Conductor internal impedance [Zi] in Ohm/m
  3.75342E-04  0.00000E+00  0.00000E+00  0.00000E+00  0.00000E+00  0.00000E+00
  3.59752E-04  0.00000E+00  0.00000E+00  0.00000E+00  0.00000E+00  0.00000E+00  Core 1
 
  0.00000E+00  3.75342E-04  0.00000E+00  0.00000E+00  0.00000E+00  0.00000E+00
  0.00000E+00  3.59752E-04  0.00000E+00  0.00000E+00  0.00000E+00  0.00000E+00  Core 2
 
  0.00000E+00  0.00000E+00  3.75342E-04  0.00000E+00  0.00000E+00  0.00000E+00
  0.00000E+00  0.00000E+00  3.59752E-04  0.00000E+00  0.00000E+00  0.00000E+00  Core 3
 
  0.00000E+00  0.00000E+00  0.00000E+00  1.05170E-03  0.00000E+00  0.00000E+00
  0.00000E+00  0.00000E+00  0.00000E+00  2.87914E-03  0.00000E+00  0.00000E+00  Core 4
 
  0.00000E+00  0.00000E+00  0.00000E+00  0.00000E+00  3.52057E-03  0.00000E+00
  0.00000E+00  0.00000E+00  0.00000E+00  0.00000E+00  8.45981E-04  0.00000E+00  Core 5
 
  0.00000E+00  0.00000E+00  0.00000E+00  0.00000E+00  0.00000E+00  3.52057E-03
  0.00000E+00  0.00000E+00  0.00000E+00  0.00000E+00  0.00000E+00  8.45981E-04  Core 6
           Eigenvector rotation has been made.


             Earth impedance [Ze] in Ohm/m
  2.89244E-03  2.89139E-03  2.88825E-03  2.98046E-03  2.86249E-03  2.85972E-03
  1.06327E-02  1.05181E-02  1.02094E-02  1.13279E-02  1.01006E-02  9.86569E-03  Core 1
 
  2.89139E-03  2.89244E-03  2.89139E-03  2.98571E-03  2.86209E-03  2.86209E-03
  1.05181E-02  1.06327E-02  1.05181E-02  1.22153E-02  1.00647E-02  1.00647E-02  Core 2
 
  2.88825E-03  2.89139E-03  2.89244E-03  2.98845E-03  2.85972E-03  2.86249E-03
  1.02094E-02  1.05181E-02  1.06327E-02  1.28796E-02  9.86569E-03  1.01006E-02  Core 3
 
  2.98046E-03  2.98571E-03  2.98845E-03  3.09529E-03  2.95024E-03  2.95543E-03
  1.13279E-02  1.22153E-02  1.28796E-02  2.07245E-02  1.10806E-02  1.18781E-02  Core 4
 
  2.86249E-03  2.86209E-03  2.85972E-03  2.95024E-03  2.83348E-03  2.83164E-03
  1.01006E-02  1.00647E-02  9.86569E-03  1.10806E-02  9.65321E-03  9.52018E-03  Core 5
 
  2.85972E-03  2.86209E-03  2.86249E-03  2.95543E-03  2.83164E-03  2.83348E-03
  9.86569E-03  1.00647E-02  1.01006E-02  1.18781E-02  9.52018E-03  9.65321E-03  Core 6


             Conductor internal impedance [Zi] in Ohm/m
  4.16555E-04  0.00000E+00  0.00000E+00  0.00000E+00  0.00000E+00  0.00000E+00
  4.06084E-04  0.00000E+00  0.00000E+00  0.00000E+00  0.00000E+00  0.00000E+00  Core 1
 
  0.00000E+00  4.16555E-04  0.00000E+00  0.00000E+00  0.00000E+00  0.00000E+00
  0.00000E+00  4.06084E-04  0.00000E+00  0.00000E+00  0.00000E+00  0.00000E+00  Core 2
 
  0.00000E+00  0.00000E+00  4.16555E-04  0.00000E+00  0.00000E+00  0.00000E+00
  0.00000E+00  0.00000E+00  4.06084E-04  0.00000E+00  0.00000E+00  0.00000E+00  Core 3
 
  0.00000E+00  0.00000E+00  0.00000E+00  1.17985E-03  0.00000E+00  0.00000E+00
  0.00000E+00  0.00000E+00  0.00000E+00  3.48084E-03  0.00000E+00  0.00000E+00  Core 4
 
  0.00000E+00  0.00000E+00  0.00000E+00  0.00000E+00  3.55427E-03  0.00000E+00
  0.00000E+00  0.00000E+00  0.00000E+00  0.00000E+00  1.06022E-03  0.00000E+00  Core 5
 
  0.00000E+00  0.00000E+00  0.00000E+00  0.00000E+00  0.00000E+00  3.55427E-03
  0.00000E+00  0.00000E+00  0.00000E+00  0.00000E+00  0.00000E+00  1.06022E-03  Core 6
           Eigenvector rotation has been made.


             Earth impedance [Ze] in Ohm/m
  3.61108E-03  3.60950E-03  3.60479E-03  3.73219E-03  3.56971E-03  3.56556E-03
  1.28478E-02  1.27035E-02  1.23153E-02  1.37074E-02  1.21831E-02  1.18876E-02  Core 1
 
  3.60950E-03  3.61108E-03  3.60950E-03  3.74015E-03  3.56910E-03  3.56910E-03
  1.27035E-02  1.28478E-02  1.27035E-02  1.48239E-02  1.21379E-02  1.21379E-02  Core 2
 
  3.60479E-03  3.60950E-03  3.61108E-03  3.74429E-03  3.56556E-03  3.56971E-03
  1.23153E-02  1.27035E-02  1.28478E-02  1.56600E-02  1.18876E-02  1.21831E-02  Core 3
 
  3.73219E-03  3.74015E-03  3.74429E-03  3.89396E-03  3.69046E-03  3.69829E-03
  1.37074E-02  1.48239E-02  1.56600E-02  2.55188E-02  1.34012E-02  1.44047E-02  Core 4
 
  3.56971E-03  3.56910E-03  3.56556E-03  3.69046E-03  3.52974E-03  3.52699E-03
  1.21831E-02  1.21379E-02  1.18876E-02  1.34012E-02  1.16249E-02  1.14576E-02  Core 5
 
  3.56556E-03  3.56910E-03  3.56971E-03  3.69829E-03  3.52699E-03  3.52974E-03
  1.18876E-02  1.21379E-02  1.21831E-02  1.44047E-02  1.14576E-02  1.16249E-02  Core 6


             Conductor internal impedance [Zi] in Ohm/m
  4.61832E-04  0.00000E+00  0.00000E+00  0.00000E+00  0.00000E+00  0.00000E+00
  4.59763E-04  0.00000E+00  0.00000E+00  0.00000E+00  0.00000E+00  0.00000E+00  Core 1
 
  0.00000E+00  4.61832E-04  0.00000E+00  0.00000E+00  0.00000E+00  0.00000E+00
  0.00000E+00  4.59763E-04  0.00000E+00  0.00000E+00  0.00000E+00  0.00000E+00  Core 2
 
  0.00000E+00  0.00000E+00  4.61832E-04  0.00000E+00  0.00000E+00  0.00000E+00
  0.00000E+00  0.00000E+00  4.59763E-04  0.00000E+00  0.00000E+00  0.00000E+00  Core 3
 
  0.00000E+00  0.00000E+00  0.00000E+00  1.32364E-03  0.00000E+00  0.00000E+00
  0.00000E+00  0.00000E+00  0.00000E+00  4.22078E-03  0.00000E+00  0.00000E+00  Core 4
 
  0.00000E+00  0.00000E+00  0.00000E+00  0.00000E+00  3.60661E-03  0.00000E+00
  0.00000E+00  0.00000E+00  0.00000E+00  0.00000E+00  1.32535E-03  0.00000E+00  Core 5
 
  0.00000E+00  0.00000E+00  0.00000E+00  0.00000E+00  0.00000E+00  3.60661E-03
  0.00000E+00  0.00000E+00  0.00000E+00  0.00000E+00  0.00000E+00  1.32535E-03  Core 6
           Eigenvector rotation has been made.


             Earth impedance [Ze] in Ohm/m
  4.50424E-03  4.50187E-03  4.49482E-03  4.67048E-03  4.44719E-03  4.44100E-03
  1.55022E-02  1.53208E-02  1.48326E-02  1.65627E-02  1.46727E-02  1.43012E-02  Core 1
 
  4.50187E-03  4.50424E-03  4.50187E-03  4.68251E-03  4.44629E-03  4.44629E-03
  1.53208E-02  1.55022E-02  1.53208E-02  1.79676E-02  1.46159E-02  1.46159E-02  Core 2
 
  4.49482E-03  4.50187E-03  4.50424E-03  4.68879E-03  4.44100E-03  4.44719E-03
  1.48326E-02  1.53208E-02  1.55022E-02  1.90198E-02  1.43012E-02  1.46727E-02  Core 3
 
  4.67048E-03  4.68251E-03  4.68879E-03  4.89829E-03  4.61299E-03  4.62478E-03
  1.65627E-02  1.79676E-02  1.90198E-02  3.14069E-02  1.61847E-02  1.74472E-02  Core 4
 
  4.44719E-03  4.44629E-03  4.44100E-03  4.61299E-03  4.39224E-03  4.38814E-03
  1.46727E-02  1.46159E-02  1.43012E-02  1.61847E-02  1.39771E-02  1.37668E-02  Core 5
 
  4.44100E-03  4.44629E-03  4.44719E-03  4.62478E-03  4.38814E-03  4.39224E-03
  1.43012E-02  1.46159E-02  1.46727E-02  1.74472E-02  1.37668E-02  1.39771E-02  Core 6


             Conductor internal impedance [Zi] in Ohm/m
  5.12706E-04  0.00000E+00  0.00000E+00  0.00000E+00  0.00000E+00  0.00000E+00
  5.21873E-04  0.00000E+00  0.00000E+00  0.00000E+00  0.00000E+00  0.00000E+00  Core 1
 
  0.00000E+00  5.12706E-04  0.00000E+00  0.00000E+00  0.00000E+00  0.00000E+00
  0.00000E+00  5.21873E-04  0.00000E+00  0.00000E+00  0.00000E+00  0.00000E+00  Core 2
 
  0.00000E+00  0.00000E+00  5.12706E-04  0.00000E+00  0.00000E+00  0.00000E+00
  0.00000E+00  0.00000E+00  5.21873E-04  0.00000E+00  0.00000E+00  0.00000E+00  Core 3
 
  0.00000E+00  0.00000E+00  0.00000E+00  1.48498E-03  0.00000E+00  0.00000E+00
  0.00000E+00  0.00000E+00  0.00000E+00  5.13262E-03  0.00000E+00  0.00000E+00  Core 4
 
  0.00000E+00  0.00000E+00  0.00000E+00  0.00000E+00  3.68700E-03  0.00000E+00
  0.00000E+00  0.00000E+00  0.00000E+00  0.00000E+00  1.65041E-03  0.00000E+00  Core 5
 
  0.00000E+00  0.00000E+00  0.00000E+00  0.00000E+00  0.00000E+00  3.68700E-03
  0.00000E+00  0.00000E+00  0.00000E+00  0.00000E+00  0.00000E+00  1.65041E-03  Core 6
           Eigenvector rotation has been made.


             Earth impedance [Ze] in Ohm/m
  5.61281E-03  5.60927E-03  5.59875E-03  5.84043E-03  5.53431E-03  5.52509E-03
  1.86773E-02  1.84492E-02  1.78354E-02  1.99823E-02  1.76430E-02  1.71761E-02  Core 1
 
  5.60927E-03  5.61281E-03  5.60927E-03  5.85857E-03  5.53297E-03  5.53297E-03
  1.84492E-02  1.86773E-02  1.84492E-02  2.17497E-02  1.75717E-02  1.75717E-02  Core 2
 
  5.59875E-03  5.60927E-03  5.61281E-03  5.86805E-03  5.52509E-03  5.53431E-03
  1.78354E-02  1.84492E-02  1.86773E-02  2.30738E-02  1.71761E-02  1.76430E-02  Core 3
 
  5.84043E-03  5.85857E-03  5.86805E-03  6.16108E-03  5.76137E-03  5.77911E-03
  1.99823E-02  2.17497E-02  2.30738E-02  3.86340E-02  1.95166E-02  2.11048E-02  Core 4
 
  5.53431E-03  5.53297E-03  5.52509E-03  5.76137E-03  5.45893E-03  5.45285E-03
  1.76430E-02  1.75717E-02  1.71761E-02  1.95166E-02  1.67771E-02  1.65130E-02  Core 5
 
  5.52509E-03  5.53297E-03  5.53431E-03  5.77911E-03  5.45285E-03  5.45893E-03
  1.71761E-02  1.75717E-02  1.76430E-02  2.11048E-02  1.65130E-02  1.67771E-02  Core 6


             Conductor internal impedance [Zi] in Ohm/m
  5.70240E-04  0.00000E+00  0.00000E+00  0.00000E+00  0.00000E+00  0.00000E+00
  5.93167E-04  0.00000E+00  0.00000E+00  0.00000E+00  0.00000E+00  0.00000E+00  Core 1
 
  0.00000E+00  5.70240E-04  0.00000E+00  0.00000E+00  0.00000E+00  0.00000E+00
  0.00000E+00  5.93167E-04  0.00000E+00  0.00000E+00  0.00000E+00  0.00000E+00  Core 2
 
  0.00000E+00  0.00000E+00  5.70240E-04  0.00000E+00  0.00000E+00  0.00000E+00
  0.00000E+00  0.00000E+00  5.93167E-04  0.00000E+00  0.00000E+00  0.00000E+00  Core 3
 
  0.00000E+00  0.00000E+00  0.00000E+00  1.66600E-03  0.00000E+00  0.00000E+00
  0.00000E+00  0.00000E+00  0.00000E+00  6.25847E-03  0.00000E+00  0.00000E+00  Core 4
 
  0.00000E+00  0.00000E+00  0.00000E+00  0.00000E+00  3.80837E-03  0.00000E+00
  0.00000E+00  0.00000E+00  0.00000E+00  0.00000E+00  2.04349E-03  0.00000E+00  Core 5
 
  0.00000E+00  0.00000E+00  0.00000E+00  0.00000E+00  0.00000E+00  3.80837E-03
  0.00000E+00  0.00000E+00  0.00000E+00  0.00000E+00  0.00000E+00  2.04349E-03  Core 6
           Eigenvector rotation has been made.


             Earth impedance [Ze] in Ohm/m
  6.98673E-03  6.98145E-03  6.96578E-03  7.29751E-03  6.87895E-03  6.86525E-03
  2.24675E-02  2.21807E-02  2.14093E-02  2.40688E-02  2.11794E-02  2.05927E-02  Core 1
 
  6.98145E-03  6.98673E-03  6.98145E-03  7.32481E-03  6.87695E-03  6.87695E-03
  2.21807E-02  2.24675E-02  2.21807E-02  2.62920E-02  2.10897E-02  2.10897E-02  Core 2
 
  6.96578E-03  6.98145E-03  6.98673E-03  7.33911E-03  6.86525E-03  6.87895E-03
  2.14093E-02  2.21807E-02  2.24675E-02  2.79578E-02  2.05927E-02  2.11794E-02  Core 3
 
  7.29751E-03  7.32481E-03  7.33911E-03  7.74859E-03  7.18908E-03  7.21570E-03
  2.40688E-02  2.62920E-02  2.79578E-02  4.74989E-02  2.34968E-02  2.54942E-02  Core 4
 
  6.87895E-03  6.87695E-03  6.86525E-03  7.18908E-03  6.77580E-03  6.76680E-03
  2.11794E-02  2.10897E-02  2.05927E-02  2.34968E-02  2.01029E-02  1.97711E-02  Core 5
 
  6.86525E-03  6.87695E-03  6.87895E-03  7.21570E-03  6.76680E-03  6.77580E-03
  2.05927E-02  2.10897E-02  2.11794E-02  2.54942E-02  1.97711E-02  2.01029E-02  Core 6


             Conductor internal impedance [Zi] in Ohm/m
  6.35076E-04  0.00000E+00  0.00000E+00  0.00000E+00  0.00000E+00  0.00000E+00
  6.74753E-04  0.00000E+00  0.00000E+00  0.00000E+00  0.00000E+00  0.00000E+00  Core 1
 
  0.00000E+00  6.35076E-04  0.00000E+00  0.00000E+00  0.00000E+00  0.00000E+00
  0.00000E+00  6.74753E-04  0.00000E+00  0.00000E+00  0.00000E+00  0.00000E+00  Core 2
 
  0.00000E+00  0.00000E+00  6.35076E-04  0.00000E+00  0.00000E+00  0.00000E+00
  0.00000E+00  0.00000E+00  6.74753E-04  0.00000E+00  0.00000E+00  0.00000E+00  Core 3
 
  0.00000E+00  0.00000E+00  0.00000E+00  1.86912E-03  0.00000E+00  0.00000E+00
  0.00000E+00  0.00000E+00  0.00000E+00  7.65105E-03  0.00000E+00  0.00000E+00  Core 4
 
  0.00000E+00  0.00000E+00  0.00000E+00  0.00000E+00  3.98709E-03  0.00000E+00
  0.00000E+00  0.00000E+00  0.00000E+00  0.00000E+00  2.50955E-03  0.00000E+00  Core 5
 
  0.00000E+00  0.00000E+00  0.00000E+00  0.00000E+00  0.00000E+00  3.98709E-03
  0.00000E+00  0.00000E+00  0.00000E+00  0.00000E+00  0.00000E+00  2.50955E-03  Core 6
           Eigenvector rotation has been made.


             Earth impedance [Ze] in Ohm/m
  8.68678E-03  8.67893E-03  8.65568E-03  9.10981E-03  8.53914E-03  8.51888E-03
  2.69824E-02  2.66220E-02  2.56528E-02  2.89409E-02  2.53801E-02  2.46433E-02  Core 1
 
  8.67893E-03  8.68678E-03  8.67893E-03  9.15081E-03  8.53618E-03  8.53618E-03
  2.66220E-02  2.69824E-02  2.66220E-02  3.17367E-02  2.52675E-02  2.52675E-02  Core 2
 
  8.65568E-03  8.67893E-03  8.68678E-03  9.17231E-03  8.51888E-03  8.53914E-03
  2.56528E-02  2.66220E-02  2.69824E-02  3.38324E-02  2.46433E-02  2.53801E-02  Core 3
 
  9.10981E-03  9.15081E-03  9.17231E-03  9.74399E-03  8.96151E-03  9.00134E-03
  2.89409E-02  3.17367E-02  3.38324E-02  5.83656E-02  2.82405E-02  3.07520E-02  Core 4
 
  8.53914E-03  8.53618E-03  8.51888E-03  8.96151E-03  8.39836E-03  8.38510E-03
  2.53801E-02  2.52675E-02  2.46433E-02  2.82405E-02  2.40436E-02  2.36272E-02  Core 5
 
  8.51888E-03  8.53618E-03  8.53914E-03  9.00134E-03  8.38510E-03  8.39836E-03
  2.46433E-02  2.52675E-02  2.53801E-02  3.07520E-02  2.36272E-02  2.40436E-02  Core 6


             Conductor internal impedance [Zi] in Ohm/m
  7.07874E-04  0.00000E+00  0.00000E+00  0.00000E+00  0.00000E+00  0.00000E+00
  7.68337E-04  0.00000E+00  0.00000E+00  0.00000E+00  0.00000E+00  0.00000E+00  Core 1
 
  0.00000E+00  7.07874E-04  0.00000E+00  0.00000E+00  0.00000E+00  0.00000E+00
  0.00000E+00  7.68337E-04  0.00000E+00  0.00000E+00  0.00000E+00  0.00000E+00  Core 2
 
  0.00000E+00  0.00000E+00  7.07874E-04  0.00000E+00  0.00000E+00  0.00000E+00
  0.00000E+00  0.00000E+00  7.68337E-04  0.00000E+00  0.00000E+00  0.00000E+00  Core 3
 
  0.00000E+00  0.00000E+00  0.00000E+00  2.09701E-03  0.00000E+00  0.00000E+00
  0.00000E+00  0.00000E+00  0.00000E+00  9.37640E-03  0.00000E+00  0.00000E+00  Core 4
 
  0.00000E+00  0.00000E+00  0.00000E+00  0.00000E+00  4.24099E-03  0.00000E+00
  0.00000E+00  0.00000E+00  0.00000E+00  0.00000E+00  3.04786E-03  0.00000E+00  Core 5
 
  0.00000E+00  0.00000E+00  0.00000E+00  0.00000E+00  0.00000E+00  4.24099E-03
  0.00000E+00  0.00000E+00  0.00000E+00  0.00000E+00  0.00000E+00  3.04786E-03  Core 6
           Eigenvector rotation has been made.


             Earth impedance [Ze] in Ohm/m
  1.07867E-02  1.07751E-02  1.07407E-02  1.13606E-02  1.05850E-02  1.05551E-02
  3.23486E-02  3.18960E-02  3.06788E-02  3.47353E-02  3.03582E-02  2.94334E-02  Core 1
 
  1.07751E-02  1.07867E-02  1.07751E-02  1.14220E-02  1.05806E-02  1.05806E-02
  3.18960E-02  3.23486E-02  3.18960E-02  3.82503E-02  3.02168E-02  3.02168E-02  Core 2
 
  1.07407E-02  1.07751E-02  1.07867E-02  1.14543E-02  1.05551E-02  1.05850E-02
  3.06788E-02  3.18960E-02  3.23486E-02  4.08863E-02  2.94334E-02  3.03582E-02  Core 3
 
  1.13606E-02  1.14220E-02  1.14543E-02  1.22516E-02  1.11584E-02  1.12179E-02
  3.47353E-02  3.82503E-02  4.08863E-02  7.16768E-02  3.38808E-02  3.70379E-02  Core 4
 
  1.05850E-02  1.05806E-02  1.05551E-02  1.11584E-02  1.03934E-02  1.03739E-02
  3.03582E-02  3.02168E-02  2.94334E-02  3.38808E-02  2.87015E-02  2.81791E-02  Core 5
 
  1.05551E-02  1.05806E-02  1.05850E-02  1.12179E-02  1.03739E-02  1.03934E-02
  2.94334E-02  3.02168E-02  3.03582E-02  3.70379E-02  2.81791E-02  2.87015E-02  Core 6


             Conductor internal impedance [Zi] in Ohm/m
  7.89552E-04  0.00000E+00  0.00000E+00  0.00000E+00  0.00000E+00  0.00000E+00
  8.76063E-04  0.00000E+00  0.00000E+00  0.00000E+00  0.00000E+00  0.00000E+00  Core 1
 
  0.00000E+00  7.89552E-04  0.00000E+00  0.00000E+00  0.00000E+00  0.00000E+00
  0.00000E+00  8.76063E-04  0.00000E+00  0.00000E+00  0.00000E+00  0.00000E+00  Core 2
 
  0.00000E+00  0.00000E+00  7.89552E-04  0.00000E+00  0.00000E+00  0.00000E+00
  0.00000E+00  0.00000E+00  8.76063E-04  0.00000E+00  0.00000E+00  0.00000E+00  Core 3
 
  0.00000E+00  0.00000E+00  0.00000E+00  2.35271E-03  0.00000E+00  0.00000E+00
  0.00000E+00  0.00000E+00  0.00000E+00  1.15173E-02  0.00000E+00  0.00000E+00  Core 4
 
  0.00000E+00  0.00000E+00  0.00000E+00  0.00000E+00  4.58483E-03  0.00000E+00
  0.00000E+00  0.00000E+00  0.00000E+00  0.00000E+00  3.65054E-03  0.00000E+00  Core 5
 
  0.00000E+00  0.00000E+00  0.00000E+00  0.00000E+00  0.00000E+00  4.58483E-03
  0.00000E+00  0.00000E+00  0.00000E+00  0.00000E+00  0.00000E+00  3.65054E-03  Core 6
           Eigenvector rotation has been made.


             Earth impedance [Ze] in Ohm/m
  1.33757E-02  1.33585E-02  1.33078E-02  1.41515E-02  1.31008E-02  1.30570E-02
  3.87118E-02  3.81436E-02  3.66158E-02  4.16080E-02  3.62430E-02  3.50829E-02  Core 1
 
  1.33585E-02  1.33757E-02  1.33585E-02  1.42432E-02  1.30944E-02  1.30944E-02
  3.81436E-02  3.87118E-02  3.81436E-02  4.60261E-02  3.60656E-02  3.60656E-02  Core 2
 
  1.33078E-02  1.33585E-02  1.33757E-02  1.42916E-02  1.30570E-02  1.31008E-02
  3.66158E-02  3.81436E-02  3.87118E-02  4.93410E-02  3.50829E-02  3.62430E-02  Core 3
 
  1.41515E-02  1.42432E-02  1.42916E-02  1.54023E-02  1.38767E-02  1.39652E-02
  4.16080E-02  4.60261E-02  4.93410E-02  8.79708E-02  4.05700E-02  4.45373E-02  Core 4
 
  1.31008E-02  1.30944E-02  1.30570E-02  1.38767E-02  1.28409E-02  1.28124E-02
  3.62430E-02  3.60656E-02  3.50829E-02  4.05700E-02  3.41929E-02  3.35379E-02  Core 5
 
  1.30570E-02  1.30944E-02  1.31008E-02  1.39652E-02  1.28124E-02  1.28409E-02
  3.50829E-02  3.60656E-02  3.62430E-02  4.45373E-02  3.35379E-02  3.41929E-02  Core 6


             Conductor internal impedance [Zi] in Ohm/m
  8.81222E-04  0.00000E+00  0.00000E+00  0.00000E+00  0.00000E+00  0.00000E+00
  1.00042E-03  0.00000E+00  0.00000E+00  0.00000E+00  0.00000E+00  0.00000E+00  Core 1
 
  0.00000E+00  8.81222E-04  0.00000E+00  0.00000E+00  0.00000E+00  0.00000E+00
  0.00000E+00  1.00042E-03  0.00000E+00  0.00000E+00  0.00000E+00  0.00000E+00  Core 2
 
  0.00000E+00  0.00000E+00  8.81222E-04  0.00000E+00  0.00000E+00  0.00000E+00
  0.00000E+00  0.00000E+00  1.00042E-03  0.00000E+00  0.00000E+00  0.00000E+00  Core 3
 
  0.00000E+00  0.00000E+00  0.00000E+00  2.63962E-03  0.00000E+00  0.00000E+00
  0.00000E+00  0.00000E+00  0.00000E+00  1.41775E-02  0.00000E+00  0.00000E+00  Core 4
 
  0.00000E+00  0.00000E+00  0.00000E+00  0.00000E+00  5.02385E-03  0.00000E+00
  0.00000E+00  0.00000E+00  0.00000E+00  0.00000E+00  4.30533E-03  0.00000E+00  Core 5
 
  0.00000E+00  0.00000E+00  0.00000E+00  0.00000E+00  0.00000E+00  5.02385E-03
  0.00000E+00  0.00000E+00  0.00000E+00  0.00000E+00  0.00000E+00  4.30533E-03  Core 6
           Eigenvector rotation has been made.


             Earth impedance [Ze] in Ohm/m
  1.65611E-02  1.65359E-02  1.64613E-02  1.76057E-02  1.61877E-02  1.61234E-02
  4.62389E-02  4.55258E-02  4.36096E-02  4.97367E-02  4.31815E-02  4.17273E-02  Core 1
 
  1.65359E-02  1.65611E-02  1.65359E-02  1.77423E-02  1.61783E-02  1.61783E-02
  4.55258E-02  4.62389E-02  4.55258E-02  5.52876E-02  4.29591E-02  4.29591E-02  Core 2
 
  1.64613E-02  1.65359E-02  1.65611E-02  1.78146E-02  1.61234E-02  1.61877E-02
  4.36096E-02  4.55258E-02  4.62389E-02  5.94552E-02  4.17273E-02  4.31815E-02  Core 3
 
  1.76057E-02  1.77423E-02  1.78146E-02  1.93601E-02  1.72335E-02  1.73648E-02
  4.97367E-02  5.52876E-02  5.94552E-02  1.07901E-01  4.84817E-02  5.34651E-02  Core 4
 
  1.61877E-02  1.61783E-02  1.61234E-02  1.72335E-02  1.58361E-02  1.57945E-02
  4.31815E-02  4.29591E-02  4.17273E-02  4.84817E-02  4.06491E-02  3.98289E-02  Core 5
 
  1.61234E-02  1.61783E-02  1.61877E-02  1.73648E-02  1.57945E-02  1.58361E-02
  4.17273E-02  4.29591E-02  4.31815E-02  5.34651E-02  3.98289E-02  4.06491E-02  Core 6


             Conductor internal impedance [Zi] in Ohm/m
  9.84112E-04  0.00000E+00  0.00000E+00  0.00000E+00  0.00000E+00  0.00000E+00
  1.14434E-03  0.00000E+00  0.00000E+00  0.00000E+00  0.00000E+00  0.00000E+00  Core 1
 
  0.00000E+00  9.84112E-04  0.00000E+00  0.00000E+00  0.00000E+00  0.00000E+00
  0.00000E+00  1.14434E-03  0.00000E+00  0.00000E+00  0.00000E+00  0.00000E+00  Core 2
 
  0.00000E+00  0.00000E+00  9.84112E-04  0.00000E+00  0.00000E+00  0.00000E+00
  0.00000E+00  0.00000E+00  1.14434E-03  0.00000E+00  0.00000E+00  0.00000E+00  Core 3
 
  0.00000E+00  0.00000E+00  0.00000E+00  2.96153E-03  0.00000E+00  0.00000E+00
  0.00000E+00  0.00000E+00  0.00000E+00  1.74872E-02  0.00000E+00  0.00000E+00  Core 4
 
  0.00000E+00  0.00000E+00  0.00000E+00  0.00000E+00  5.57911E-03  0.00000E+00
  0.00000E+00  0.00000E+00  0.00000E+00  0.00000E+00  5.02598E-03  0.00000E+00  Core 5
 
  0.00000E+00  0.00000E+00  0.00000E+00  0.00000E+00  0.00000E+00  5.57911E-03
  0.00000E+00  0.00000E+00  0.00000E+00  0.00000E+00  0.00000E+00  5.02598E-03  Core 6
           Eigenvector rotation has been made.


             Earth impedance [Ze] in Ohm/m
  2.04717E-02  2.04347E-02  2.03255E-02  2.18720E-02  1.99659E-02  1.98723E-02
  5.51197E-02  5.42256E-02  5.18239E-02  5.93212E-02  5.13403E-02  4.95191E-02  Core 1
 
  2.04347E-02  2.04717E-02  2.04347E-02  2.20751E-02  1.99522E-02  1.99522E-02
  5.42256E-02  5.51197E-02  5.42256E-02  6.62922E-02  5.10617E-02  5.10617E-02  Core 2
 
  2.03255E-02  2.04347E-02  2.04717E-02  2.21826E-02  1.98723E-02  1.99659E-02
  5.18239E-02  5.42256E-02  5.51197E-02  7.15302E-02  4.95191E-02  5.13403E-02  Core 3
 
  2.18720E-02  2.20751E-02  2.21826E-02  2.43304E-02  2.13701E-02  2.15643E-02
  5.93212E-02  6.62922E-02  7.15302E-02  1.32258E-01  5.78123E-02  6.40689E-02  Core 4
 
  1.99659E-02  1.99522E-02  1.98723E-02  2.13701E-02  1.94920E-02  1.94317E-02
  5.13403E-02  5.10617E-02  4.95191E-02  5.78123E-02  4.82186E-02  4.71923E-02  Core 5
 
  1.98723E-02  1.99522E-02  1.99659E-02  2.15643E-02  1.94317E-02  1.94920E-02
  4.95191E-02  5.10617E-02  5.13403E-02  6.40689E-02  4.71923E-02  4.82186E-02  Core 6


             Conductor internal impedance [Zi] in Ohm/m
  1.09958E-03  0.00000E+00  0.00000E+00  0.00000E+00  0.00000E+00  0.00000E+00
  1.31137E-03  0.00000E+00  0.00000E+00  0.00000E+00  0.00000E+00  0.00000E+00  Core 1
 
  0.00000E+00  1.09958E-03  0.00000E+00  0.00000E+00  0.00000E+00  0.00000E+00
  0.00000E+00  1.31137E-03  0.00000E+00  0.00000E+00  0.00000E+00  0.00000E+00  Core 2
 
  0.00000E+00  0.00000E+00  1.09958E-03  0.00000E+00  0.00000E+00  0.00000E+00
  0.00000E+00  0.00000E+00  1.31137E-03  0.00000E+00  0.00000E+00  0.00000E+00  Core 3
 
  0.00000E+00  0.00000E+00  0.00000E+00  3.32272E-03  0.00000E+00  0.00000E+00
  0.00000E+00  0.00000E+00  0.00000E+00  2.16098E-02  0.00000E+00  0.00000E+00  Core 4
 
  0.00000E+00  0.00000E+00  0.00000E+00  0.00000E+00  6.16700E-03  0.00000E+00
  0.00000E+00  0.00000E+00  0.00000E+00  0.00000E+00  5.74521E-03  0.00000E+00  Core 5
 
  0.00000E+00  0.00000E+00  0.00000E+00  0.00000E+00  0.00000E+00  6.16700E-03
  0.00000E+00  0.00000E+00  0.00000E+00  0.00000E+00  0.00000E+00  5.74521E-03  Core 6
           Eigenvector rotation has been made.


             Earth impedance [Ze] in Ohm/m
  2.52610E-02  2.52070E-02  2.50478E-02  2.71296E-02  2.45784E-02  2.44425E-02
  6.55699E-02  6.44497E-02  6.14424E-02  7.05853E-02  6.09070E-02  5.86286E-02  Core 1
 
  2.52070E-02  2.52610E-02  2.52070E-02  2.74302E-02  2.45585E-02  2.45585E-02
  6.44497E-02  6.55699E-02  6.44497E-02  7.93348E-02  6.05583E-02  6.05583E-02  Core 2
 
  2.50478E-02  2.52070E-02  2.52610E-02  2.75900E-02  2.44425E-02  2.45784E-02
  6.14424E-02  6.44497E-02  6.55699E-02  8.59156E-02  5.86286E-02  6.09070E-02  Core 3
 
  2.71296E-02  2.74302E-02  2.75900E-02  3.05704E-02  2.64556E-02  2.67419E-02
  7.05853E-02  7.93348E-02  8.59156E-02  1.62003E-01  6.87828E-02  7.66331E-02  Core 4
 
  2.45784E-02  2.45585E-02  2.44425E-02  2.64556E-02  2.39420E-02  2.38548E-02
  6.09070E-02  6.05583E-02  5.86286E-02  6.87828E-02  5.70673E-02  5.57847E-02  Core 5
 
  2.44425E-02  2.45585E-02  2.45784E-02  2.67419E-02  2.38548E-02  2.39420E-02
  5.86286E-02  6.05583E-02  6.09070E-02  7.66331E-02  5.57847E-02  5.70673E-02  Core 6


             Conductor internal impedance [Zi] in Ohm/m
  1.22917E-03  0.00000E+00  0.00000E+00  0.00000E+00  0.00000E+00  0.00000E+00
  1.50577E-03  0.00000E+00  0.00000E+00  0.00000E+00  0.00000E+00  0.00000E+00  Core 1
 
  0.00000E+00  1.22917E-03  0.00000E+00  0.00000E+00  0.00000E+00  0.00000E+00
  0.00000E+00  1.50577E-03  0.00000E+00  0.00000E+00  0.00000E+00  0.00000E+00  Core 2
 
  0.00000E+00  0.00000E+00  1.22917E-03  0.00000E+00  0.00000E+00  0.00000E+00
  0.00000E+00  0.00000E+00  1.50577E-03  0.00000E+00  0.00000E+00  0.00000E+00  Core 3
 
  0.00000E+00  0.00000E+00  0.00000E+00  3.72798E-03  0.00000E+00  0.00000E+00
  0.00000E+00  0.00000E+00  0.00000E+00  2.67505E-02  0.00000E+00  0.00000E+00  Core 4
 
  0.00000E+00  0.00000E+00  0.00000E+00  0.00000E+00  6.80770E-03  0.00000E+00
  0.00000E+00  0.00000E+00  0.00000E+00  0.00000E+00  6.56380E-03  0.00000E+00  Core 5
 
  0.00000E+00  0.00000E+00  0.00000E+00  0.00000E+00  0.00000E+00  6.80770E-03
  0.00000E+00  0.00000E+00  0.00000E+00  0.00000E+00  0.00000E+00  6.56380E-03  Core 6
           Eigenvector rotation has been made.


             Earth impedance [Ze] in Ohm/m
  3.11116E-02  3.10331E-02  3.08021E-02  3.35923E-02  3.01935E-02  2.99972E-02
  7.78325E-02  7.64305E-02  7.26688E-02  8.37765E-02  7.20918E-02  6.92449E-02  Core 1
 
  3.10331E-02  3.11116E-02  3.10331E-02  3.40358E-02  3.01648E-02  3.01648E-02
  7.64305E-02  7.78325E-02  7.64305E-02  9.47510E-02  7.16560E-02  7.16560E-02  Core 2
 
  3.08021E-02  3.10331E-02  3.11116E-02  3.42724E-02  2.99972E-02  3.01935E-02
  7.26688E-02  7.64305E-02  7.78325E-02  1.03015E-01  6.92449E-02  7.20918E-02  Core 3
 
  3.35923E-02  3.40358E-02  3.42724E-02  3.84022E-02  3.26916E-02  3.31119E-02
  8.37765E-02  9.47510E-02  1.03015E-01  1.98293E-01  8.16393E-02  9.14822E-02  Core 4
 
  3.01935E-02  3.01648E-02  2.99972E-02  3.26916E-02  2.93423E-02  2.92171E-02
  7.20918E-02  7.16560E-02  6.92449E-02  8.16393E-02  6.73801E-02  6.57797E-02  Core 5
 
  2.99972E-02  3.01648E-02  3.01935E-02  3.31119E-02  2.92171E-02  2.93423E-02
  6.92449E-02  7.16560E-02  7.20918E-02  9.14822E-02  6.57797E-02  6.73801E-02  Core 6


             Conductor internal impedance [Zi] in Ohm/m
  1.37459E-03  0.00000E+00  0.00000E+00  0.00000E+00  0.00000E+00  0.00000E+00
  1.73271E-03  0.00000E+00  0.00000E+00  0.00000E+00  0.00000E+00  0.00000E+00  Core 1
 
  0.00000E+00  1.37459E-03  0.00000E+00  0.00000E+00  0.00000E+00  0.00000E+00
  0.00000E+00  1.73271E-03  0.00000E+00  0.00000E+00  0.00000E+00  0.00000E+00  Core 2
 
  0.00000E+00  0.00000E+00  1.37459E-03  0.00000E+00  0.00000E+00  0.00000E+00
  0.00000E+00  0.00000E+00  1.73271E-03  0.00000E+00  0.00000E+00  0.00000E+00  Core 3
 
  0.00000E+00  0.00000E+00  0.00000E+00  4.18269E-03  0.00000E+00  0.00000E+00
  0.00000E+00  0.00000E+00  0.00000E+00  3.31667E-02  0.00000E+00  0.00000E+00  Core 4
 
  0.00000E+00  0.00000E+00  0.00000E+00  0.00000E+00  7.51849E-03  0.00000E+00
  0.00000E+00  0.00000E+00  0.00000E+00  0.00000E+00  7.50314E-03  0.00000E+00  Core 5
 
  0.00000E+00  0.00000E+00  0.00000E+00  0.00000E+00  0.00000E+00  7.51849E-03
  0.00000E+00  0.00000E+00  0.00000E+00  0.00000E+00  0.00000E+00  7.50314E-03  Core 6
           Eigenvector rotation has been made.


             Earth impedance [Ze] in Ohm/m
  3.82390E-02  3.81255E-02  3.77919E-02  4.15140E-02  3.70090E-02  3.67270E-02
  9.21803E-02  9.04275E-02  8.57285E-02  9.91663E-02  8.51289E-02  8.15769E-02  Core 1
 
  3.81255E-02  3.82390E-02  3.81255E-02  4.21658E-02  3.69677E-02  3.69677E-02
  9.04275E-02  9.21803E-02  9.04275E-02  1.12921E-01  8.45849E-02  8.45849E-02  Core 2
 
  3.77919E-02  3.81255E-02  3.82390E-02  4.25150E-02  3.67270E-02  3.70090E-02
  8.57285E-02  9.04275E-02  9.21803E-02  1.23293E-01  8.15769E-02  8.51289E-02  Core 3
 
  4.15140E-02  4.21658E-02  4.25150E-02  4.82281E-02  4.03167E-02  4.09315E-02
  9.91663E-02  1.12921E-01  1.23293E-01  2.42528E-01  9.66546E-02  1.08985E-01  Core 4
 
  3.70090E-02  3.69677E-02  3.67270E-02  4.03167E-02  3.58752E-02  3.56962E-02
  8.51289E-02  8.45849E-02  8.15769E-02  9.66546E-02  7.93623E-02  7.73685E-02  Core 5
 
  3.67270E-02  3.69677E-02  3.70090E-02  4.09315E-02  3.56962E-02  3.58752E-02
  8.15769E-02  8.45849E-02  8.51289E-02  1.08985E-01  7.73685E-02  7.93623E-02  Core 6


             Conductor internal impedance [Zi] in Ohm/m
  1.53777E-03  0.00000E+00  0.00000E+00  0.00000E+00  0.00000E+00  0.00000E+00
  1.99845E-03  0.00000E+00  0.00000E+00  0.00000E+00  0.00000E+00  0.00000E+00  Core 1
 
  0.00000E+00  1.53777E-03  0.00000E+00  0.00000E+00  0.00000E+00  0.00000E+00
  0.00000E+00  1.99845E-03  0.00000E+00  0.00000E+00  0.00000E+00  0.00000E+00  Core 2
 
  0.00000E+00  0.00000E+00  1.53777E-03  0.00000E+00  0.00000E+00  0.00000E+00
  0.00000E+00  0.00000E+00  1.99845E-03  0.00000E+00  0.00000E+00  0.00000E+00  Core 3
 
  0.00000E+00  0.00000E+00  0.00000E+00  4.69289E-03  0.00000E+00  0.00000E+00
  0.00000E+00  0.00000E+00  0.00000E+00  4.11819E-02  0.00000E+00  0.00000E+00  Core 4
 
  0.00000E+00  0.00000E+00  0.00000E+00  0.00000E+00  8.31354E-03  0.00000E+00
  0.00000E+00  0.00000E+00  0.00000E+00  0.00000E+00  8.58472E-03  0.00000E+00  Core 5
 
  0.00000E+00  0.00000E+00  0.00000E+00  0.00000E+00  0.00000E+00  8.31354E-03
  0.00000E+00  0.00000E+00  0.00000E+00  0.00000E+00  0.00000E+00  8.58472E-03  Core 6
           Eigenvector rotation has been made.


             Earth impedance [Ze] in Ohm/m
[...]
  1.94589E+00  1.87094E+00  1.67713E+00  1.90848E+00  1.72504E+00  1.58357E+00
  2.30104E+00  2.18031E+00  1.88145E+00  1.94543E+00  1.99821E+00  1.78485E+00  Core 1
 
  1.87094E+00  1.94589E+00  1.87094E+00  2.54508E+00  1.70298E+00  1.70298E+00
  2.18031E+00  2.30104E+00  2.18031E+00  2.96568E+00  1.96425E+00  1.96425E+00  Core 2
 
  1.67713E+00  1.87094E+00  1.94589E+00  3.04292E+00  1.58357E+00  1.72504E+00
  1.88145E+00  2.18031E+00  2.30104E+00  3.96332E+00  1.78485E+00  1.99821E+00  Core 3
 
  1.90848E+00  2.54508E+00  3.04292E+00  7.55359E+00  1.93370E+00  2.49257E+00
  1.94543E+00  2.96568E+00  3.96332E+00  1.79444E+01  2.11718E+00  3.06485E+00  Core 4
 
  1.72504E+00  1.70298E+00  1.58357E+00  1.93370E+00  1.55667E+00  1.48073E+00
  1.99821E+00  1.96425E+00  1.78485E+00  2.11718E+00  1.77680E+00  1.66578E+00  Core 5
 
  1.58357E+00  1.70298E+00  1.72504E+00  2.49257E+00  1.48073E+00  1.55667E+00
  1.78485E+00  1.96425E+00  1.99821E+00  3.06485E+00  1.66578E+00  1.77680E+00  Core 6


             Conductor internal impedance [Zi] in Ohm/m
  2.12417E-02  0.00000E+00  0.00000E+00  0.00000E+00  0.00000E+00  0.00000E+00
  1.20545E-01  0.00000E+00  0.00000E+00  0.00000E+00  0.00000E+00  0.00000E+00  Core 1
 
  0.00000E+00  2.12417E-02  0.00000E+00  0.00000E+00  0.00000E+00  0.00000E+00
  0.00000E+00  1.20545E-01  0.00000E+00  0.00000E+00  0.00000E+00  0.00000E+00  Core 2
 
  0.00000E+00  0.00000E+00  2.12417E-02  0.00000E+00  0.00000E+00  0.00000E+00
  0.00000E+00  0.00000E+00  1.20545E-01  0.00000E+00  0.00000E+00  0.00000E+00  Core 3
 
  0.00000E+00  0.00000E+00  0.00000E+00  6.62704E-02  0.00000E+00  0.00000E+00
  0.00000E+00  0.00000E+00  0.00000E+00  7.34706E+00  0.00000E+00  0.00000E+00  Core 4
 
  0.00000E+00  0.00000E+00  0.00000E+00  0.00000E+00  1.05032E-01  0.00000E+00
  0.00000E+00  0.00000E+00  0.00000E+00  0.00000E+00  3.64530E-01  0.00000E+00  Core 5
 
  0.00000E+00  0.00000E+00  0.00000E+00  0.00000E+00  0.00000E+00  1.05032E-01
  0.00000E+00  0.00000E+00  0.00000E+00  0.00000E+00  0.00000E+00  3.64530E-01  Core 6
           Eigenvector rotation has been made.


             Earth impedance [Ze] in Ohm/m
  2.22631E+00  2.13708E+00  1.90712E+00  2.14608E+00  1.96879E+00  1.80156E+00
  2.59033E+00  2.45255E+00  2.11276E+00  2.16944E+00  2.24762E+00  2.00527E+00  Core 1
 
  2.13708E+00  2.22631E+00  2.13708E+00  2.90422E+00  1.94266E+00  1.94266E+00
  2.45255E+00  2.59033E+00  2.45255E+00  3.33111E+00  2.20899E+00  2.20899E+00  Core 2
 
  1.90712E+00  2.13708E+00  2.22631E+00  3.52404E+00  1.80156E+00  1.96879E+00
  2.11276E+00  2.45255E+00  2.59033E+00  4.48136E+00  2.00527E+00  2.24762E+00  Core 3
 
  2.14608E+00  2.90422E+00  3.52404E+00  9.25545E+00  2.19337E+00  2.86673E+00
  2.16944E+00  3.33111E+00  4.48136E+00  2.11827E+01  2.37137E+00  3.45506E+00  Core 4
 
  1.96879E+00  1.94266E+00  1.80156E+00  2.19337E+00  1.77348E+00  1.68409E+00
  2.24762E+00  2.20899E+00  2.00527E+00  2.37137E+00  1.99761E+00  1.87172E+00  Core 5
 
  1.80156E+00  1.94266E+00  1.96879E+00  2.86673E+00  1.68409E+00  1.77348E+00
  2.00527E+00  2.20899E+00  2.24762E+00  3.45506E+00  1.87172E+00  1.99761E+00  Core 6


             Conductor internal impedance [Zi] in Ohm/m
  2.38291E-02  0.00000E+00  0.00000E+00  0.00000E+00  0.00000E+00  0.00000E+00
  1.48854E-01  0.00000E+00  0.00000E+00  0.00000E+00  0.00000E+00  0.00000E+00  Core 1
 
  0.00000E+00  2.38291E-02  0.00000E+00  0.00000E+00  0.00000E+00  0.00000E+00
  0.00000E+00  1.48854E-01  0.00000E+00  0.00000E+00  0.00000E+00  0.00000E+00  Core 2
 
  0.00000E+00  0.00000E+00  2.38291E-02  0.00000E+00  0.00000E+00  0.00000E+00
  0.00000E+00  0.00000E+00  1.48854E-01  0.00000E+00  0.00000E+00  0.00000E+00  Core 3
 
  0.00000E+00  0.00000E+00  0.00000E+00  7.43564E-02  0.00000E+00  0.00000E+00
  0.00000E+00  0.00000E+00  0.00000E+00  9.24033E+00  0.00000E+00  0.00000E+00  Core 4
 
  0.00000E+00  0.00000E+00  0.00000E+00  0.00000E+00  1.17740E-01  0.00000E+00
  0.00000E+00  0.00000E+00  0.00000E+00  0.00000E+00  4.44658E-01  0.00000E+00  Core 5
 
  0.00000E+00  0.00000E+00  0.00000E+00  0.00000E+00  0.00000E+00  1.17740E-01
  0.00000E+00  0.00000E+00  0.00000E+00  0.00000E+00  0.00000E+00  4.44658E-01  Core 6
           Eigenvector rotation has been made.


             Earth impedance [Ze] in Ohm/m
  2.54224E+00  2.43647E+00  2.16522E+00  2.41080E+00  2.24306E+00  2.04641E+00
  2.91415E+00  2.75739E+00  2.37204E+00  2.42203E+00  2.52694E+00  2.25229E+00  Core 1
 
  2.43647E+00  2.54224E+00  2.43647E+00  3.31551E+00  2.21225E+00  2.21225E+00
  2.75739E+00  2.91415E+00  2.75739E+00  3.73562E+00  2.48310E+00  2.48310E+00  Core 2
 
  2.16522E+00  2.43647E+00  2.54224E+00  4.07042E+00  2.04641E+00  2.24306E+00
  2.37204E+00  2.75739E+00  2.91415E+00  5.05868E+00  2.25229E+00  2.52694E+00  Core 3
 
  2.41080E+00  3.31551E+00  4.07042E+00  1.13136E+01  2.48360E+00  3.28862E+00
  2.42203E+00  3.73562E+00  5.05868E+00  2.49440E+01  2.65671E+00  3.89126E+00  Core 4
 
  2.24306E+00  2.21225E+00  2.04641E+00  2.48360E+00  2.01728E+00  1.91257E+00
  2.52694E+00  2.48310E+00  2.25229E+00  2.65671E+00  2.24497E+00  2.10251E+00  Core 5
 
  2.04641E+00  2.21225E+00  2.24306E+00  3.28862E+00  1.91257E+00  2.01728E+00
  2.25229E+00  2.48310E+00  2.52694E+00  3.89126E+00  2.10251E+00  2.24497E+00  Core 6


             Conductor internal impedance [Zi] in Ohm/m
  2.67324E-02  0.00000E+00  0.00000E+00  0.00000E+00  0.00000E+00  0.00000E+00
  1.84139E-01  0.00000E+00  0.00000E+00  0.00000E+00  0.00000E+00  0.00000E+00  Core 1
 
  0.00000E+00  2.67324E-02  0.00000E+00  0.00000E+00  0.00000E+00  0.00000E+00
  0.00000E+00  1.84139E-01  0.00000E+00  0.00000E+00  0.00000E+00  0.00000E+00  Core 2
 
  0.00000E+00  0.00000E+00  2.67324E-02  0.00000E+00  0.00000E+00  0.00000E+00
  0.00000E+00  0.00000E+00  1.84139E-01  0.00000E+00  0.00000E+00  0.00000E+00  Core 3
 
  0.00000E+00  0.00000E+00  0.00000E+00  8.34291E-02  0.00000E+00  0.00000E+00
  0.00000E+00  0.00000E+00  0.00000E+00  1.16227E+01  0.00000E+00  0.00000E+00  Core 4
 
  0.00000E+00  0.00000E+00  0.00000E+00  0.00000E+00  1.32000E-01  0.00000E+00
  0.00000E+00  0.00000E+00  0.00000E+00  0.00000E+00  5.43793E-01  0.00000E+00  Core 5
 
  0.00000E+00  0.00000E+00  0.00000E+00  0.00000E+00  0.00000E+00  1.32000E-01
  0.00000E+00  0.00000E+00  0.00000E+00  0.00000E+00  0.00000E+00  5.43793E-01  Core 6
           Eigenvector rotation has been made.


             Earth impedance [Ze] in Ohm/m
  2.89781E+00  2.77308E+00  2.45488E+00  2.70620E+00  2.55146E+00  2.32137E+00
  3.27676E+00  3.09885E+00  2.66275E+00  2.70663E+00  2.83984E+00  2.52919E+00  Core 1
 
  2.77308E+00  2.89781E+00  2.77308E+00  3.77466E+00  2.51533E+00  2.51533E+00
  3.09885E+00  3.27676E+00  3.09885E+00  4.18874E+00  2.79020E+00  2.79020E+00  Core 2
 
  2.45488E+00  2.77308E+00  2.89781E+00  4.68612E+00  2.32137E+00  2.55146E+00
  2.66275E+00  3.09885E+00  3.27676E+00  5.70671E+00  2.52919E+00  2.83984E+00  Core 3
 
  2.70620E+00  3.77466E+00  4.68612E+00  1.37944E+01  2.80834E+00  3.76381E+00
  2.70663E+00  4.18874E+00  5.70671E+00  2.92991E+01  2.97709E+00  4.37920E+00  Core 4
 
  2.55146E+00  2.51533E+00  2.32137E+00  2.80834E+00  2.29128E+00  2.16921E+00
  2.83984E+00  2.79020E+00  2.52919E+00  2.97709E+00  2.52215E+00  2.36120E+00  Core 5
 
  2.32137E+00  2.51533E+00  2.55146E+00  3.76381E+00  2.16921E+00  2.29128E+00
  2.52919E+00  2.79020E+00  2.83984E+00  4.37920E+00  2.36120E+00  2.52215E+00  Core 6


             Conductor internal impedance [Zi] in Ohm/m
  2.99898E-02  0.00000E+00  0.00000E+00  0.00000E+00  0.00000E+00  0.00000E+00
  2.28163E-01  0.00000E+00  0.00000E+00  0.00000E+00  0.00000E+00  0.00000E+00  Core 1
 
  0.00000E+00  2.99898E-02  0.00000E+00  0.00000E+00  0.00000E+00  0.00000E+00
  0.00000E+00  2.28163E-01  0.00000E+00  0.00000E+00  0.00000E+00  0.00000E+00  Core 2
 
  0.00000E+00  0.00000E+00  2.99898E-02  0.00000E+00  0.00000E+00  0.00000E+00
  0.00000E+00  0.00000E+00  2.28163E-01  0.00000E+00  0.00000E+00  0.00000E+00  Core 3
 
  0.00000E+00  0.00000E+00  0.00000E+00  9.36089E-02  0.00000E+00  0.00000E+00
  0.00000E+00  0.00000E+00  0.00000E+00  1.46207E+01  0.00000E+00  0.00000E+00  Core 4
 
  0.00000E+00  0.00000E+00  0.00000E+00  0.00000E+00  1.48000E-01  0.00000E+00
  0.00000E+00  0.00000E+00  0.00000E+00  0.00000E+00  6.66643E-01  0.00000E+00  Core 5
 
  0.00000E+00  0.00000E+00  0.00000E+00  0.00000E+00  0.00000E+00  1.48000E-01
  0.00000E+00  0.00000E+00  0.00000E+00  0.00000E+00  0.00000E+00  6.66643E-01  Core 6
           Eigenvector rotation has been made.


             Earth impedance [Ze] in Ohm/m
  3.29770E+00  3.15136E+00  2.77996E+00  3.03625E+00  2.89808E+00  2.63011E+00
  3.68293E+00  3.48146E+00  2.98876E+00  3.02705E+00  3.19046E+00  2.83965E+00  Core 1
 
  3.15136E+00  3.29770E+00  3.15136E+00  4.28806E+00  2.85590E+00  2.85590E+00
  3.48146E+00  3.68293E+00  3.48146E+00  4.69676E+00  3.13435E+00  3.13435E+00  Core 2
 
  2.77996E+00  3.15136E+00  3.29770E+00  5.38171E+00  2.63011E+00  2.89808E+00
  2.98876E+00  3.48146E+00  3.68293E+00  6.43110E+00  2.83965E+00  3.19046E+00  Core 3
 
  3.03625E+00  4.28806E+00  5.38171E+00  1.67739E+01  3.17195E+00  4.29857E+00
  3.02705E+00  4.69676E+00  6.43110E+00  3.43254E+01  3.33682E+00  4.92532E+00  Core 4
 
  2.89808E+00  2.85590E+00  2.63011E+00  3.17195E+00  2.59912E+00  2.45742E+00
  3.19046E+00  3.13435E+00  2.83965E+00  3.33682E+00  2.83282E+00  2.65123E+00  Core 5
 
  2.63011E+00  2.85590E+00  2.89808E+00  4.29857E+00  2.45742E+00  2.59912E+00
  2.83965E+00  3.13435E+00  3.19046E+00  4.92532E+00  2.65123E+00  2.83282E+00  Core 6


             Conductor internal impedance [Zi] in Ohm/m
  3.36447E-02  0.00000E+00  0.00000E+00  0.00000E+00  0.00000E+00  0.00000E+00
  2.83139E-01  0.00000E+00  0.00000E+00  0.00000E+00  0.00000E+00  0.00000E+00  Core 1
 
  0.00000E+00  3.36447E-02  0.00000E+00  0.00000E+00  0.00000E+00  0.00000E+00
  0.00000E+00  2.83139E-01  0.00000E+00  0.00000E+00  0.00000E+00  0.00000E+00  Core 2
 
  0.00000E+00  0.00000E+00  3.36447E-02  0.00000E+00  0.00000E+00  0.00000E+00
  0.00000E+00  0.00000E+00  2.83139E-01  0.00000E+00  0.00000E+00  0.00000E+00  Core 3
 
  0.00000E+00  0.00000E+00  0.00000E+00  1.05031E-01  0.00000E+00  0.00000E+00
  0.00000E+00  0.00000E+00  0.00000E+00  1.83936E+01  0.00000E+00  0.00000E+00  Core 4
 
  0.00000E+00  0.00000E+00  0.00000E+00  0.00000E+00  1.65952E-01  0.00000E+00
  0.00000E+00  0.00000E+00  0.00000E+00  0.00000E+00  8.19113E-01  0.00000E+00  Core 5
 
  0.00000E+00  0.00000E+00  0.00000E+00  0.00000E+00  0.00000E+00  1.65952E-01
  0.00000E+00  0.00000E+00  0.00000E+00  0.00000E+00  0.00000E+00  8.19113E-01  Core 6
           Eigenvector rotation has been made.


             Earth impedance [Ze] in Ohm/m
  3.74721E+00  3.57633E+00  3.14478E+00  3.40534E+00  3.28749E+00  2.97670E+00
  4.13802E+00  3.91029E+00  3.35441E+00  3.38757E+00  3.58345E+00  3.18778E+00  Core 1
 
  3.57633E+00  3.74721E+00  3.57633E+00  4.86272E+00  3.23847E+00  3.23847E+00
  3.91029E+00  4.13802E+00  3.91029E+00  5.26662E+00  3.52011E+00  3.52011E+00  Core 2
 
  3.14478E+00  3.57633E+00  3.74721E+00  6.16622E+00  2.97670E+00  3.28749E+00
  3.35441E+00  3.91029E+00  4.13802E+00  7.24129E+00  3.18778E+00  3.58345E+00  Core 3
 
  3.40534E+00  4.86272E+00  6.16622E+00  2.03394E+01  3.57931E+00  4.89997E+00
  3.38757E+00  5.26662E+00  7.24129E+00  4.01078E+01  3.74072E+00  5.53685E+00  Core 4
 
  3.28749E+00  3.23847E+00  2.97670E+00  3.57931E+00  2.94487E+00  2.78100E+00
  3.58345E+00  3.52011E+00  3.18778E+00  3.74072E+00  3.18109E+00  2.97645E+00  Core 5
 
  2.97670E+00  3.23847E+00  3.28749E+00  4.89997E+00  2.78100E+00  2.94487E+00
  3.18778E+00  3.52011E+00  3.58345E+00  5.53685E+00  2.97645E+00  3.18109E+00  Core 6


             Conductor internal impedance [Zi] in Ohm/m
  3.77456E-02  0.00000E+00  0.00000E+00  0.00000E+00  0.00000E+00  0.00000E+00
  3.51849E-01  0.00000E+00  0.00000E+00  0.00000E+00  0.00000E+00  0.00000E+00  Core 1
 
  0.00000E+00  3.77456E-02  0.00000E+00  0.00000E+00  0.00000E+00  0.00000E+00
  0.00000E+00  3.51849E-01  0.00000E+00  0.00000E+00  0.00000E+00  0.00000E+00  Core 2
 
  0.00000E+00  0.00000E+00  3.77456E-02  0.00000E+00  0.00000E+00  0.00000E+00
  0.00000E+00  0.00000E+00  3.51849E-01  0.00000E+00  0.00000E+00  0.00000E+00  Core 3
 
  0.00000E+00  0.00000E+00  0.00000E+00  1.17846E-01  0.00000E+00  0.00000E+00
  0.00000E+00  0.00000E+00  0.00000E+00  2.31417E+01  0.00000E+00  0.00000E+00  Core 4
 
  0.00000E+00  0.00000E+00  0.00000E+00  0.00000E+00  1.86095E-01  0.00000E+00
  0.00000E+00  0.00000E+00  0.00000E+00  0.00000E+00  1.00860E+00  0.00000E+00  Core 5
 
  0.00000E+00  0.00000E+00  0.00000E+00  0.00000E+00  0.00000E+00  1.86095E-01
  0.00000E+00  0.00000E+00  0.00000E+00  0.00000E+00  0.00000E+00  1.00860E+00  Core 6
           Eigenvector rotation has been made.


             Earth impedance [Ze] in Ohm/m
  4.25227E+00  4.05362E+00  3.55418E+00  3.81841E+00  3.72485E+00  3.36576E+00
  4.64807E+00  4.39101E+00  3.76455E+00  3.79299E+00  4.02400E+00  3.57821E+00  Core 1
 
  4.05362E+00  4.25227E+00  4.05362E+00  5.50640E+00  3.66810E+00  3.66810E+00
  4.39101E+00  4.64807E+00  4.39101E+00  5.90602E+00  3.95260E+00  3.95260E+00  Core 2
 
  3.55418E+00  4.05362E+00  4.25227E+00  7.04994E+00  3.36576E+00  3.72485E+00
  3.76455E+00  4.39101E+00  4.64807E+00  8.14789E+00  3.57821E+00  4.02400E+00  Core 3
 
  3.81841E+00  5.50640E+00  7.04994E+00  2.45895E+01  4.03586E+00  5.57598E+00
  3.79299E+00  5.90602E+00  8.14789E+00  4.67385E+01  4.19418E+00  6.22189E+00  Core 4
 
  3.72485E+00  3.66810E+00  3.36576E+00  4.03586E+00  3.33312E+00  3.14426E+00
  4.02400E+00  3.95260E+00  3.57821E+00  4.19418E+00  3.57159E+00  3.34116E+00  Core 5
 
  3.36576E+00  3.66810E+00  3.72485E+00  5.57598E+00  3.14426E+00  3.33312E+00
  3.57821E+00  3.95260E+00  4.02400E+00  6.22189E+00  3.34116E+00  3.57159E+00  Core 6


             Conductor internal impedance [Zi] in Ohm/m
  4.23469E-02  0.00000E+00  0.00000E+00  0.00000E+00  0.00000E+00  0.00000E+00
  4.37789E-01  0.00000E+00  0.00000E+00  0.00000E+00  0.00000E+00  0.00000E+00  Core 1
 
  0.00000E+00  4.23469E-02  0.00000E+00  0.00000E+00  0.00000E+00  0.00000E+00
  0.00000E+00  4.37789E-01  0.00000E+00  0.00000E+00  0.00000E+00  0.00000E+00  Core 2
 
  0.00000E+00  0.00000E+00  4.23469E-02  0.00000E+00  0.00000E+00  0.00000E+00
  0.00000E+00  0.00000E+00  4.37789E-01  0.00000E+00  0.00000E+00  0.00000E+00  Core 3
 
  0.00000E+00  0.00000E+00  0.00000E+00  1.32225E-01  0.00000E+00  0.00000E+00
  0.00000E+00  0.00000E+00  0.00000E+00  2.91176E+01  0.00000E+00  0.00000E+00  Core 4
 
  0.00000E+00  0.00000E+00  0.00000E+00  0.00000E+00  2.08696E-01  0.00000E+00
  0.00000E+00  0.00000E+00  0.00000E+00  0.00000E+00  1.24440E+00  0.00000E+00  Core 5
 
  0.00000E+00  0.00000E+00  0.00000E+00  0.00000E+00  0.00000E+00  2.08696E-01
  0.00000E+00  0.00000E+00  0.00000E+00  0.00000E+00  0.00000E+00  1.24440E+00  Core 6
           Eigenvector rotation has been made.


             Earth impedance [Ze] in Ohm/m
  4.81958E+00  4.58955E+00  4.01361E+00  4.28094E+00  4.21598E+00  3.80245E+00
  5.21982E+00  4.93001E+00  4.22464E+00  4.24871E+00  4.51796E+00  4.01612E+00  Core 1
 
  4.58955E+00  4.81958E+00  4.58955E+00  6.22775E+00  4.15051E+00  4.15051E+00
  4.93001E+00  5.21982E+00  4.93001E+00  6.62356E+00  4.43754E+00  4.43754E+00  Core 2
 
  4.01361E+00  4.58955E+00  4.81958E+00  8.04450E+00  3.80245E+00  4.21598E+00
  4.22464E+00  4.93001E+00  5.21982E+00  9.16284E+00  4.01612E+00  4.51796E+00  Core 3
 
  4.28094E+00  6.22775E+00  8.04450E+00  2.96358E+01  4.54767E+00  6.33555E+00
  4.24871E+00  6.62356E+00  9.16284E+00  5.43177E+01  4.70324E+00  6.98951E+00  Core 4
 
  4.21598E+00  4.15051E+00  3.80245E+00  4.54767E+00  3.76902E+00  3.55202E+00
  4.51796E+00  4.43754E+00  4.01612E+00  4.70324E+00  4.00949E+00  3.75021E+00  Core 5
 
  3.80245E+00  4.15051E+00  4.21598E+00  6.33555E+00  3.55202E+00  3.76902E+00
  4.01612E+00  4.43754E+00  4.51796E+00  6.98951E+00  3.75021E+00  4.00949E+00  Core 6


             Conductor internal impedance [Zi] in Ohm/m
  4.75096E-02  0.00000E+00  0.00000E+00  0.00000E+00  0.00000E+00  0.00000E+00
  5.45352E-01  0.00000E+00  0.00000E+00  0.00000E+00  0.00000E+00  0.00000E+00  Core 1
 
  0.00000E+00  4.75096E-02  0.00000E+00  0.00000E+00  0.00000E+00  0.00000E+00
  0.00000E+00  5.45352E-01  0.00000E+00  0.00000E+00  0.00000E+00  0.00000E+00  Core 2
 
  0.00000E+00  0.00000E+00  4.75096E-02  0.00000E+00  0.00000E+00  0.00000E+00
  0.00000E+00  0.00000E+00  5.45352E-01  0.00000E+00  0.00000E+00  0.00000E+00  Core 3
 
  0.00000E+00  0.00000E+00  0.00000E+00  1.48359E-01  0.00000E+00  0.00000E+00
  0.00000E+00  0.00000E+00  0.00000E+00  3.66388E+01  0.00000E+00  0.00000E+00  Core 4
 
  0.00000E+00  0.00000E+00  0.00000E+00  0.00000E+00  2.34055E-01  0.00000E+00
  0.00000E+00  0.00000E+00  0.00000E+00  0.00000E+00  1.53815E+00  0.00000E+00  Core 5
 
  0.00000E+00  0.00000E+00  0.00000E+00  0.00000E+00  0.00000E+00  2.34055E-01
  0.00000E+00  0.00000E+00  0.00000E+00  0.00000E+00  0.00000E+00  1.53815E+00  Core 6
           Eigenvector rotation has been made.
Frequency card 1.000E+03 1.000E+06  0  1 1.00E+03 |           1.E3           1.E6              1.E3
           Frequency 1.00000000E+06  Hz


             Earth impedance [Ze] in Ohm/m
  4.36030E-01  4.28251E-01  4.06435E-01  4.87981E-01  4.01263E-01  3.84385E-01
  6.59618E-01  6.34020E-01  5.67550E-01  6.48746E-01  5.83620E-01  5.35039E-01  Core 1
 
  4.28251E-01  4.36030E-01  4.28251E-01  5.46507E-01  3.98727E-01  3.98727E-01
  6.34020E-01  6.59618E-01  6.34020E-01  8.63588E-01  5.76055E-01  5.76055E-01  Core 2
 
  4.06435E-01  4.28251E-01  4.36030E-01  5.81886E-01  3.84385E-01  4.01263E-01
  5.67550E-01  6.34020E-01  6.59618E-01  1.03847E+00  5.35039E-01  5.83620E-01  Core 3
 
  4.87981E-01  5.46507E-01  5.81886E-01  8.97248E-01  4.67246E-01  5.18439E-01
  6.48746E-01  8.63588E-01  1.03847E+00  3.04651E+00  6.56654E-01  8.48295E-01  Core 4
 
  4.01263E-01  3.98727E-01  3.84385E-01  4.67246E-01  3.72441E-01  3.62702E-01
  5.83620E-01  5.76055E-01  5.35039E-01  6.56654E-01  5.25603E-01  4.99462E-01  Core 5
 
  3.84385E-01  3.98727E-01  4.01263E-01  5.18439E-01  3.62702E-01  3.72441E-01
  5.35039E-01  5.76055E-01  5.83620E-01  8.48295E-01  4.99462E-01  5.25603E-01  Core 6


             Conductor internal impedance [Zi] in Ohm/m
  6.74981E-03  0.00000E+00  0.00000E+00  0.00000E+00  0.00000E+00  0.00000E+00
  1.66712E-02  0.00000E+00  0.00000E+00  0.00000E+00  0.00000E+00  0.00000E+00  Core 1
 
  0.00000E+00  6.74981E-03  0.00000E+00  0.00000E+00  0.00000E+00  0.00000E+00
  0.00000E+00  1.66712E-02  0.00000E+00  0.00000E+00  0.00000E+00  0.00000E+00  Core 2
 
  0.00000E+00  0.00000E+00  6.74981E-03  0.00000E+00  0.00000E+00  0.00000E+00
  0.00000E+00  0.00000E+00  1.66712E-02  0.00000E+00  0.00000E+00  0.00000E+00  Core 3
 
  0.00000E+00  0.00000E+00  0.00000E+00  2.09824E-02  0.00000E+00  0.00000E+00
  0.00000E+00  0.00000E+00  0.00000E+00  7.50789E-01  0.00000E+00  0.00000E+00  Core 4
 
  0.00000E+00  0.00000E+00  0.00000E+00  0.00000E+00  3.38602E-02  0.00000E+00
  0.00000E+00  0.00000E+00  0.00000E+00  0.00000E+00  5.90590E-02  0.00000E+00  Core 5
 
  0.00000E+00  0.00000E+00  0.00000E+00  0.00000E+00  0.00000E+00  3.38602E-02
  0.00000E+00  0.00000E+00  0.00000E+00  0.00000E+00  0.00000E+00  5.90590E-02  Core 6
           Eigenvector rotation has been made.
Blank card terminating frequency cards.           |BLANK CARD ENDING FREQUENCY CARDS
Blank card ends stacked subcases of cable data.   |BLANK CARD ENDING CABLE CONSTANTS
Timing figures characterizing central processor (CP) solution speed.  ----------------------------   CP sec  Wait sec  Real sec
                                                                                          Totals      0.281     0.000     0.281

